@<TRIPOS>MOLECULE
178103
 66 70 0 0 0
SMALL
GASTEIGER

@<TRIPOS>ATOM
      1 O          -0.7038    2.5703    2.2068 O.co2   1  LIG1       -0.5495
      2 O          -1.4276    3.3407    0.1955 O.co2   1  LIG1       -0.5495
      3 O           1.7866   -4.2154    1.8033 O.3     1  LIG1       -0.4920
      4 O           2.2178    2.9469    0.4205 O.3     1  LIG1       -0.4893
      5 O          -4.7899   -2.1707   -2.2798 O.3     1  LIG1       -0.4526
      6 O          -6.4378   -0.4129   -2.1315 O.3     1  LIG1       -0.4526
      7 O           4.4788    1.5809   -3.5356 O.3     1  LIG1       -0.4950
      8 O           1.7982    6.5568    0.8223 O.3     1  LIG1       -0.3917
      9 C          -0.7139    1.1002    0.3298 C.3     1  LIG1        0.0203
     10 C           0.7077    0.5960    0.6562 C.3     1  LIG1        0.0218
     11 C          -1.7352    0.1326    0.9746 C.3     1  LIG1        0.0184
     12 C           0.4573   -0.8544    1.0256 C.ar    1  LIG1       -0.0320
     13 C          -0.9033   -1.1083    1.2095 C.ar    1  LIG1       -0.0353
     14 C           1.6825    0.8323   -0.5004 C.ar    1  LIG1        0.0025
     15 C          -2.9895   -0.0233    0.1135 C.ar    1  LIG1       -0.0356
     16 C          -0.9549    2.4647    0.9730 C.2     1  LIG1        0.0466
     17 C           1.4106   -1.8481    1.2506 C.ar    1  LIG1       -0.0159
     18 C          -1.3299   -2.3566    1.6431 C.ar    1  LIG1       -0.0542
     19 C           2.4172    2.0301   -0.5764 C.ar    1  LIG1        0.1278
     20 C           0.9875   -3.1191    1.6397 C.ar    1  LIG1        0.1208
     21 C          -3.2153   -1.1151   -0.7431 C.ar    1  LIG1       -0.0124
     22 C          -0.3817   -3.3657    1.8278 C.ar    1  LIG1       -0.0196
     23 C          -3.9639    1.0069    0.1692 C.ar    1  LIG1       -0.0543
     24 C           1.8435   -0.1053   -1.5363 C.ar    1  LIG1       -0.0510
     25 C          -4.4031   -1.1654   -1.4465 C.ar    1  LIG1        0.1665
     26 C          -5.1471    0.9430   -0.5737 C.ar    1  LIG1       -0.0159
     27 C           3.3453    2.2273   -1.6067 C.ar    1  LIG1        0.0221
     28 C           2.7658    0.1017   -2.5692 C.ar    1  LIG1       -0.0194
     29 C          -5.3434   -0.1658   -1.3621 C.ar    1  LIG1        0.1662
     30 C           3.5313    1.2639   -2.5994 C.ar    1  LIG1        0.1236
     31 C           3.1488   -4.0178    2.1756 C.3     1  LIG1        0.0893
     32 C          -6.0896   -1.6972   -2.6838 C.3     1  LIG1        0.2332
     33 C           2.3263    4.3206    0.0403 C.3     1  LIG1        0.1126
     34 C           3.9923   -5.1077    1.5159 C.3     1  LIG1       -0.0215
     35 C           1.4696    5.1715    0.9698 C.3     1  LIG1        0.0783
     36 C           4.7635    0.5929   -4.5158 C.3     1  LIG1        0.0788
     37 C           4.0076   -4.9746   -0.0015 C.3     1  LIG1       -0.0622
     38 H           1.0831    7.0269    1.2865 H       1  LIG1        0.2095
     39 H          -0.8658    1.1665   -0.7574 H       1  LIG1        0.0379
     40 H           1.1227    1.0566    1.5617 H       1  LIG1        0.0405
     41 H          -2.0621    0.4661    1.9695 H       1  LIG1        0.0404
     42 H           2.4506   -1.6012    1.0806 H       1  LIG1        0.0657
     43 H          -2.3824   -2.5507    1.8244 H       1  LIG1        0.0622
     44 H          -2.4898   -1.9115   -0.8595 H       1  LIG1        0.0658
     45 H          -0.7097   -4.3555    2.1333 H       1  LIG1        0.0654
     46 H          -3.7808    1.8859    0.7904 H       1  LIG1        0.0622
     47 H           1.2494   -1.0165   -1.5461 H       1  LIG1        0.0623
     48 H          -5.8744    1.7439   -0.5289 H       1  LIG1        0.0655
     49 H           3.9471    3.1298   -1.6416 H       1  LIG1        0.0691
     50 H           2.8552   -0.6664   -3.3282 H       1  LIG1        0.0654
     51 H           3.2129   -4.1199    3.2648 H       1  LIG1        0.0696
     52 H           3.5620   -3.0426    1.9105 H       1  LIG1        0.0696
     53 H          -6.8425   -2.4282   -2.3654 H       1  LIG1        0.1166
     54 H          -6.1132   -1.6274   -3.7774 H       1  LIG1        0.1166
     55 H           1.9956    4.4935   -0.9924 H       1  LIG1        0.0720
     56 H           3.3751    4.6309    0.1191 H       1  LIG1        0.0720
     57 H           3.5915   -6.0945    1.7749 H       1  LIG1        0.0295
     58 H           5.0190   -5.0532    1.8938 H       1  LIG1        0.0295
     59 H           0.4115    5.0466    0.7305 H       1  LIG1        0.0591
     60 H           1.6163    4.8861    2.0166 H       1  LIG1        0.0591
     61 H           5.5531    0.9849   -5.1645 H       1  LIG1        0.0660
     62 H           3.8885    0.3926   -5.1423 H       1  LIG1        0.0660
     63 H           5.1395   -0.3259   -4.0533 H       1  LIG1        0.0660
     64 H           3.0029   -5.0855   -0.4217 H       1  LIG1        0.0231
     65 H           4.6438   -5.7482   -0.4428 H       1  LIG1        0.0231
     66 H           4.3997   -3.9984   -0.3047 H       1  LIG1        0.0231
@<TRIPOS>BOND
     1     1    16   ar
     2     2    16   ar
     3     3    20    1
     4     3    31    1
     5     4    19    1
     6     4    33    1
     7     5    25    1
     8     5    32    1
     9     6    29    1
    10     6    32    1
    11     7    30    1
    12     7    36    1
    13     8    35    1
    14     9    10    1
    15     9    11    1
    16     9    16    1
    17    10    12    1
    18    10    14    1
    19    11    13    1
    20    11    15    1
    21    12    13   ar
    22    12    17   ar
    23    13    18   ar
    24    14    19   ar
    25    14    24   ar
    26    15    21   ar
    27    15    23   ar
    28    17    20   ar
    29    18    22   ar
    30    19    27   ar
    31    20    22   ar
    32    21    25   ar
    33    23    26   ar
    34    24    28   ar
    35    25    29   ar
    36    26    29   ar
    37    27    30   ar
    38    28    30   ar
    39    31    34    1
    40    33    35    1
    41    34    37    1
    42     8    38    1
    43     9    39    1
    44    10    40    1
    45    11    41    1
    46    17    42    1
    47    18    43    1
    48    21    44    1
    49    22    45    1
    50    23    46    1
    51    24    47    1
    52    26    48    1
    53    27    49    1
    54    28    50    1
    55    31    51    1
    56    31    52    1
    57    32    53    1
    58    32    54    1
    59    33    55    1
    60    33    56    1
    61    34    57    1
    62    34    58    1
    63    35    59    1
    64    35    60    1
    65    36    61    1
    66    36    62    1
    67    36    63    1
    68    37    64    1
    69    37    65    1
    70    37    66    1
@<TRIPOS>MOLECULE
178103
 66 70 0 0 0
SMALL
GASTEIGER

@<TRIPOS>ATOM
      1 O          -0.0848    3.3933    0.5636 O.co2   1  LIG1       -0.5495
      2 O          -1.5294    2.6334    2.1432 O.co2   1  LIG1       -0.5495
      3 O           1.8133   -4.2906    1.4309 O.3     1  LIG1       -0.4920
      4 O           3.4247    1.0277    1.2517 O.3     1  LIG1       -0.4893
      5 O          -4.7843   -2.0390   -2.3021 O.3     1  LIG1       -0.4526
      6 O          -6.4351   -0.2938   -2.0705 O.3     1  LIG1       -0.4526
      7 O           4.6511    1.3267   -3.3511 O.3     1  LIG1       -0.4950
      8 O           3.7948    2.1568    3.8820 O.3     1  LIG1       -0.3917
      9 C          -0.7335    1.1278    0.4781 C.3     1  LIG1        0.0203
     10 C           0.7042    0.5910    0.7282 C.3     1  LIG1        0.0218
     11 C          -1.7362    0.1029    1.0644 C.3     1  LIG1        0.0184
     12 C           0.4553   -0.8796    0.9894 C.ar    1  LIG1       -0.0320
     13 C          -0.8957   -1.1469    1.1983 C.ar    1  LIG1       -0.0353
     14 C           1.7315    0.8110   -0.3852 C.ar    1  LIG1        0.0025
     15 C          -2.9896   -0.0063    0.1933 C.ar    1  LIG1       -0.0356
     16 C          -0.7846    2.5085    1.1312 C.2     1  LIG1        0.0466
     17 C           1.4098   -1.8882    1.0997 C.ar    1  LIG1       -0.0159
     18 C          -1.3077   -2.4237    1.5618 C.ar    1  LIG1       -0.0542
     19 C           3.0852    1.0667   -0.0775 C.ar    1  LIG1        0.1278
     20 C           0.9975   -3.1915    1.3768 C.ar    1  LIG1        0.1208
     21 C          -3.2123   -1.0533   -0.7192 C.ar    1  LIG1       -0.0124
     22 C          -0.3584   -3.4478    1.6266 C.ar    1  LIG1       -0.0196
     23 C          -3.9654    1.0176    0.3019 C.ar    1  LIG1       -0.0543
     24 C           1.3690    0.7048   -1.7395 C.ar    1  LIG1       -0.0510
     25 C          -4.3991   -1.0725   -1.4237 C.ar    1  LIG1        0.1665
     26 C          -5.1467    0.9889   -0.4475 C.ar    1  LIG1       -0.0159
     27 C           4.0151    1.2475   -1.1098 C.ar    1  LIG1        0.0221
     28 C           2.3048    0.8839   -2.7619 C.ar    1  LIG1       -0.0194
     29 C          -5.3408   -0.0802   -1.2907 C.ar    1  LIG1        0.1662
     30 C           3.6327    1.1560   -2.4509 C.ar    1  LIG1        0.1236
     31 C           3.1815   -4.0893    1.0728 C.3     1  LIG1        0.0893
     32 C          -6.0935   -1.5601   -2.6676 C.3     1  LIG1        0.2332
     33 C           4.6373    1.6720    1.6453 C.3     1  LIG1        0.1126
     34 C           3.8271   -5.4502    0.8225 C.3     1  LIG1       -0.0215
     35 C           4.7977    1.4613    3.1495 C.3     1  LIG1        0.0783
     36 C           4.3116    1.1956   -4.7251 C.3     1  LIG1        0.0788
     37 C           3.2907   -6.0998   -0.4466 C.3     1  LIG1       -0.0622
     38 H           2.9477    2.0063    3.4139 H       1  LIG1        0.2095
     39 H          -0.9445    1.2852   -0.5856 H       1  LIG1        0.0379
     40 H           1.0825    1.0217    1.6655 H       1  LIG1        0.0405
     41 H          -2.0564    0.3533    2.0835 H       1  LIG1        0.0404
     42 H           2.4525   -1.6298    0.9620 H       1  LIG1        0.0657
     43 H          -2.3526   -2.6286    1.7738 H       1  LIG1        0.0622
     44 H          -2.4874   -1.8441   -0.8738 H       1  LIG1        0.0658
     45 H          -0.6759   -4.4568    1.8743 H       1  LIG1        0.0654
     46 H          -3.7881    1.8532    0.9823 H       1  LIG1        0.0622
     47 H           0.3436    0.4735   -2.0176 H       1  LIG1        0.0623
     48 H          -5.8799    1.7810   -0.3582 H       1  LIG1        0.0655
     49 H           5.0617    1.4380   -0.9038 H       1  LIG1        0.0691
     50 H           1.9549    0.8020   -3.7844 H       1  LIG1        0.0654
     51 H           3.6953   -3.5891    1.9020 H       1  LIG1        0.0696
     52 H           3.2793   -3.4875    0.1611 H       1  LIG1        0.0696
     53 H          -6.8376   -2.3042   -2.3575 H       1  LIG1        0.1166
     54 H          -6.1378   -1.4578   -3.7577 H       1  LIG1        0.1166
     55 H           4.5739    2.7415    1.4157 H       1  LIG1        0.0720
     56 H           5.5000    1.2150    1.1508 H       1  LIG1        0.0720
     57 H           3.6339   -6.1180    1.6695 H       1  LIG1        0.0295
     58 H           4.9115   -5.3265    0.7286 H       1  LIG1        0.0295
     59 H           4.7181    0.3988    3.4025 H       1  LIG1        0.0591
     60 H           5.7718    1.8299    3.4844 H       1  LIG1        0.0591
     61 H           5.2256    1.3377   -5.3097 H       1  LIG1        0.0660
     62 H           3.5971    1.9665   -5.0316 H       1  LIG1        0.0660
     63 H           3.9315    0.1922   -4.9451 H       1  LIG1        0.0660
     64 H           2.2114   -6.2700   -0.3822 H       1  LIG1        0.0231
     65 H           3.7779   -7.0654   -0.6139 H       1  LIG1        0.0231
     66 H           3.4853   -5.4678   -1.3197 H       1  LIG1        0.0231
@<TRIPOS>BOND
     1     1    16   ar
     2     2    16   ar
     3     3    20    1
     4     3    31    1
     5     4    19    1
     6     4    33    1
     7     5    25    1
     8     5    32    1
     9     6    29    1
    10     6    32    1
    11     7    30    1
    12     7    36    1
    13     8    35    1
    14     9    10    1
    15     9    11    1
    16     9    16    1
    17    10    12    1
    18    10    14    1
    19    11    13    1
    20    11    15    1
    21    12    13   ar
    22    12    17   ar
    23    13    18   ar
    24    14    19   ar
    25    14    24   ar
    26    15    21   ar
    27    15    23   ar
    28    17    20   ar
    29    18    22   ar
    30    19    27   ar
    31    20    22   ar
    32    21    25   ar
    33    23    26   ar
    34    24    28   ar
    35    25    29   ar
    36    26    29   ar
    37    27    30   ar
    38    28    30   ar
    39    31    34    1
    40    33    35    1
    41    34    37    1
    42     8    38    1
    43     9    39    1
    44    10    40    1
    45    11    41    1
    46    17    42    1
    47    18    43    1
    48    21    44    1
    49    22    45    1
    50    23    46    1
    51    24    47    1
    52    26    48    1
    53    27    49    1
    54    28    50    1
    55    31    51    1
    56    31    52    1
    57    32    53    1
    58    32    54    1
    59    33    55    1
    60    33    56    1
    61    34    57    1
    62    34    58    1
    63    35    59    1
    64    35    60    1
    65    36    61    1
    66    36    62    1
    67    36    63    1
    68    37    64    1
    69    37    65    1
    70    37    66    1
@<TRIPOS>MOLECULE
178103
 66 70 0 0 0
SMALL
GASTEIGER

@<TRIPOS>ATOM
      1 O           0.0497    3.2717    0.4915 O.co2   1  LIG1       -0.5495
      2 O          -1.6043    2.6053    1.8880 O.co2   1  LIG1       -0.5495
      3 O           1.7437   -4.1987    2.0971 O.3     1  LIG1       -0.4920
      4 O           0.9727   -1.0916   -1.7847 O.3     1  LIG1       -0.4893
      5 O          -4.7543   -2.1198   -2.4748 O.3     1  LIG1       -0.4526
      6 O          -6.4040   -0.3659   -2.2965 O.3     1  LIG1       -0.4526
      7 O           4.7512    1.4153   -3.2023 O.3     1  LIG1       -0.4950
      8 O           1.0302   -4.6257   -2.7364 O.3     1  LIG1       -0.3917
      9 C          -0.6870    1.0213    0.3492 C.3     1  LIG1        0.0203
     10 C           0.6987    0.4342    0.7236 C.3     1  LIG1        0.0218
     11 C          -1.7655    0.0631    0.9087 C.3     1  LIG1        0.0184
     12 C           0.3824   -0.9999    1.0869 C.ar    1  LIG1       -0.0320
     13 C          -0.9929   -1.2086    1.1780 C.ar    1  LIG1       -0.0353
     14 C           1.7739    0.6363   -0.3422 C.ar    1  LIG1        0.0025
     15 C          -2.9852   -0.0418   -0.0028 C.ar    1  LIG1       -0.0356
     16 C          -0.7562    2.4227    0.9691 C.2     1  LIG1        0.0466
     17 C           1.2756   -2.0166    1.4136 C.ar    1  LIG1       -0.0159
     18 C          -1.4935   -2.4324    1.6050 C.ar    1  LIG1       -0.0542
     19 C           1.8955   -0.1089   -1.5263 C.ar    1  LIG1        0.1278
     20 C           0.7829   -3.2665    1.8052 C.ar    1  LIG1        0.1208
     21 C          -3.1932   -1.1041   -0.8994 C.ar    1  LIG1       -0.0124
     22 C          -0.6019   -3.4686    1.8998 C.ar    1  LIG1       -0.0196
     23 C          -3.9565    0.9897    0.0688 C.ar    1  LIG1       -0.0543
     24 C           2.6943    1.6822   -0.1306 C.ar    1  LIG1       -0.0510
     25 C          -4.3724   -1.1334   -1.6180 C.ar    1  LIG1        0.1665
     26 C          -5.1274    0.9504   -0.6944 C.ar    1  LIG1       -0.0159
     27 C           2.9046    0.2023   -2.4538 C.ar    1  LIG1        0.0221
     28 C           3.7066    1.9755   -1.0489 C.ar    1  LIG1       -0.0194
     29 C          -5.3132   -0.1357   -1.5149 C.ar    1  LIG1        0.1662
     30 C           3.8184    1.2317   -2.2164 C.ar    1  LIG1        0.1236
     31 C           1.3022   -5.5435    2.2708 C.3     1  LIG1        0.0893
     32 C          -6.0600   -1.6457   -2.8619 C.3     1  LIG1        0.2332
     33 C           1.5382   -2.2938   -2.3136 C.3     1  LIG1        0.1126
     34 C           2.5042   -6.4281    2.5962 C.3     1  LIG1       -0.0215
     35 C           0.5146   -3.4151   -2.1878 C.3     1  LIG1        0.0783
     36 C           5.6969    2.4565   -2.9918 C.3     1  LIG1        0.0788
     37 C           3.5496   -6.4351    1.4911 C.3     1  LIG1       -0.0622
     38 H           0.3556   -5.3056   -2.5696 H       1  LIG1        0.2095
     39 H          -0.7883    1.1271   -0.7404 H       1  LIG1        0.0379
     40 H           1.0564    0.8859    1.6616 H       1  LIG1        0.0405
     41 H          -2.1294    0.3696    1.8982 H       1  LIG1        0.0404
     42 H           2.3458   -1.8397    1.3639 H       1  LIG1        0.0657
     43 H          -2.5634   -2.5766    1.7229 H       1  LIG1        0.0622
     44 H          -2.4643   -1.8962   -1.0217 H       1  LIG1        0.0658
     45 H          -1.0215   -4.4124    2.2271 H       1  LIG1        0.0654
     46 H          -3.7880    1.8358    0.7380 H       1  LIG1        0.0622
     47 H           2.5895    2.3168    0.7501 H       1  LIG1        0.0623
     48 H          -5.8603    1.7454   -0.6279 H       1  LIG1        0.0655
     49 H           2.9763   -0.3338   -3.3941 H       1  LIG1        0.0691
     50 H           4.3605    2.8104   -0.8249 H       1  LIG1        0.0654
     51 H           0.8152   -5.9016    1.3556 H       1  LIG1        0.0696
     52 H           0.6024   -5.6077    3.1122 H       1  LIG1        0.0696
     53 H          -6.8076   -2.3796   -2.5392 H       1  LIG1        0.1166
     54 H          -6.0959   -1.5682   -3.9543 H       1  LIG1        0.1166
     55 H           2.4526   -2.5759   -1.7751 H       1  LIG1        0.0720
     56 H           1.7864   -2.1681   -3.3734 H       1  LIG1        0.0720
     57 H           2.1603   -7.4530    2.7760 H       1  LIG1        0.0295
     58 H           2.9786   -6.0710    3.5183 H       1  LIG1        0.0295
     59 H           0.2559   -3.5863   -1.1397 H       1  LIG1        0.0591
     60 H          -0.4072   -3.1523   -2.7172 H       1  LIG1        0.0591
     61 H           6.3754    2.4691   -3.8502 H       1  LIG1        0.0660
     62 H           6.2987    2.2688   -2.0969 H       1  LIG1        0.0660
     63 H           5.2057    3.4342   -2.9428 H       1  LIG1        0.0660
     64 H           3.1195   -6.7822    0.5460 H       1  LIG1        0.0231
     65 H           4.3722   -7.1051    1.7572 H       1  LIG1        0.0231
     66 H           3.9687   -5.4358    1.3331 H       1  LIG1        0.0231
@<TRIPOS>BOND
     1     1    16   ar
     2     2    16   ar
     3     3    20    1
     4     3    31    1
     5     4    19    1
     6     4    33    1
     7     5    25    1
     8     5    32    1
     9     6    29    1
    10     6    32    1
    11     7    30    1
    12     7    36    1
    13     8    35    1
    14     9    10    1
    15     9    11    1
    16     9    16    1
    17    10    12    1
    18    10    14    1
    19    11    13    1
    20    11    15    1
    21    12    13   ar
    22    12    17   ar
    23    13    18   ar
    24    14    19   ar
    25    14    24   ar
    26    15    21   ar
    27    15    23   ar
    28    17    20   ar
    29    18    22   ar
    30    19    27   ar
    31    20    22   ar
    32    21    25   ar
    33    23    26   ar
    34    24    28   ar
    35    25    29   ar
    36    26    29   ar
    37    27    30   ar
    38    28    30   ar
    39    31    34    1
    40    33    35    1
    41    34    37    1
    42     8    38    1
    43     9    39    1
    44    10    40    1
    45    11    41    1
    46    17    42    1
    47    18    43    1
    48    21    44    1
    49    22    45    1
    50    23    46    1
    51    24    47    1
    52    26    48    1
    53    27    49    1
    54    28    50    1
    55    31    51    1
    56    31    52    1
    57    32    53    1
    58    32    54    1
    59    33    55    1
    60    33    56    1
    61    34    57    1
    62    34    58    1
    63    35    59    1
    64    35    60    1
    65    36    61    1
    66    36    62    1
    67    36    63    1
    68    37    64    1
    69    37    65    1
    70    37    66    1
@<TRIPOS>MOLECULE
178103
 66 70 0 0 0
SMALL
GASTEIGER

@<TRIPOS>ATOM
      1 O          -0.6599    2.5126    2.1094 O.co2   1  LIG1       -0.5495
      2 O          -1.1260    3.2489    0.0098 O.co2   1  LIG1       -0.5495
      3 O           1.8057   -4.3584    1.7628 O.3     1  LIG1       -0.4920
      4 O           1.1384   -1.1399   -1.7107 O.3     1  LIG1       -0.4893
      5 O          -4.8160   -2.2149   -2.2234 O.3     1  LIG1       -0.4526
      6 O          -6.4216   -0.4186   -2.0710 O.3     1  LIG1       -0.4526
      7 O           4.7359    1.6077   -3.2316 O.3     1  LIG1       -0.4950
      8 O           0.6695   -4.0080   -1.8050 O.3     1  LIG1       -0.3917
      9 C          -0.6613    0.9571    0.3122 C.3     1  LIG1        0.0203
     10 C           0.7452    0.4563    0.6936 C.3     1  LIG1        0.0218
     11 C          -1.6882    0.0268    0.9996 C.3     1  LIG1        0.0184
     12 C           0.4910   -0.9849    1.0666 C.ar    1  LIG1       -0.0320
     13 C          -0.8739   -1.2281    1.2426 C.ar    1  LIG1       -0.0353
     14 C           1.7830    0.7236   -0.3947 C.ar    1  LIG1        0.0025
     15 C          -2.9582   -0.1094    0.1621 C.ar    1  LIG1       -0.0356
     16 C          -0.8275    2.3687    0.8643 C.2     1  LIG1        0.0466
     17 C           1.4380   -1.9780    1.2969 C.ar    1  LIG1       -0.0159
     18 C          -1.3077   -2.4718    1.6810 C.ar    1  LIG1       -0.0542
     19 C           1.9667   -0.0599   -1.5512 C.ar    1  LIG1        0.1278
     20 C           1.0009   -3.2575    1.6371 C.ar    1  LIG1        0.1208
     21 C          -3.2145   -1.1984   -0.6888 C.ar    1  LIG1       -0.0124
     22 C          -0.3656   -3.4908    1.8553 C.ar    1  LIG1       -0.0196
     23 C          -3.9070    0.9445    0.2211 C.ar    1  LIG1       -0.0543
     24 C           2.5784    1.8757   -0.2337 C.ar    1  LIG1       -0.0510
     25 C          -4.4049   -1.2206   -1.3888 C.ar    1  LIG1        0.1665
     26 C          -5.0955    0.9060   -0.5153 C.ar    1  LIG1       -0.0159
     27 C           2.9712    0.2891   -2.4667 C.ar    1  LIG1        0.0221
     28 C           3.5704    2.2152   -1.1553 C.ar    1  LIG1       -0.0194
     29 C          -5.3207   -0.1987   -1.3024 C.ar    1  LIG1        0.1662
     30 C           3.7846    1.4088   -2.2662 C.ar    1  LIG1        0.1236
     31 C           3.1080   -4.2553    1.1834 C.3     1  LIG1        0.0893
     32 C          -6.1016   -1.7070   -2.6309 C.3     1  LIG1        0.2332
     33 C           1.2819   -1.9286   -2.8927 C.3     1  LIG1        0.1126
     34 C           3.6392   -5.6535    0.8740 C.3     1  LIG1       -0.0215
     35 C           0.2859   -3.0824   -2.8209 C.3     1  LIG1        0.0783
     36 C           5.6970    2.6223   -2.9695 C.3     1  LIG1        0.0788
     37 C           3.6821   -6.5602    2.0934 C.3     1  LIG1       -0.0622
     38 H           0.6519   -3.4963   -0.9710 H       1  LIG1        0.2095
     39 H          -0.7972    0.9578   -0.7785 H       1  LIG1        0.0379
     40 H           1.1091    0.9204    1.6212 H       1  LIG1        0.0405
     41 H          -1.9846    0.3917    1.9930 H       1  LIG1        0.0404
     42 H           2.4870   -1.7338    1.1782 H       1  LIG1        0.0657
     43 H          -2.3606   -2.6586    1.8671 H       1  LIG1        0.0622
     44 H          -2.5076   -2.0110   -0.8065 H       1  LIG1        0.0658
     45 H          -0.6982   -4.4818    2.1521 H       1  LIG1        0.0654
     46 H          -3.6977    1.8205    0.8375 H       1  LIG1        0.0622
     47 H           2.4063    2.5321    0.6206 H       1  LIG1        0.0623
     48 H          -5.8038    1.7242   -0.4700 H       1  LIG1        0.0655
     49 H           3.1509   -0.2975   -3.3606 H       1  LIG1        0.0691
     50 H           4.1388    3.1205   -0.9760 H       1  LIG1        0.0654
     51 H           3.7739   -3.7455    1.8895 H       1  LIG1        0.0696
     52 H           3.0872   -3.7006    0.2369 H       1  LIG1        0.0696
     53 H          -6.8737   -2.4219   -2.3223 H       1  LIG1        0.1166
     54 H          -6.1170   -1.6285   -3.7240 H       1  LIG1        0.1166
     55 H           2.2970   -2.3398   -2.9425 H       1  LIG1        0.0720
     56 H           1.0622   -1.3187   -3.7758 H       1  LIG1        0.0720
     57 H           4.6445   -5.5691    0.4459 H       1  LIG1        0.0295
     58 H           2.9983   -6.1225    0.1180 H       1  LIG1        0.0295
     59 H          -0.7232   -2.7278   -2.5907 H       1  LIG1        0.0591
     60 H           0.2657   -3.6259   -3.7697 H       1  LIG1        0.0591
     61 H           6.4403    2.5924   -3.7721 H       1  LIG1        0.0660
     62 H           6.2223    2.4394   -2.0258 H       1  LIG1        0.0660
     63 H           5.2345    3.6144   -2.9804 H       1  LIG1        0.0660
     64 H           4.2882   -6.1193    2.8905 H       1  LIG1        0.0231
     65 H           4.1208   -7.5268    1.8257 H       1  LIG1        0.0231
     66 H           2.6772   -6.7469    2.4848 H       1  LIG1        0.0231
@<TRIPOS>BOND
     1     1    16   ar
     2     2    16   ar
     3     3    20    1
     4     3    31    1
     5     4    19    1
     6     4    33    1
     7     5    25    1
     8     5    32    1
     9     6    29    1
    10     6    32    1
    11     7    30    1
    12     7    36    1
    13     8    35    1
    14     9    10    1
    15     9    11    1
    16     9    16    1
    17    10    12    1
    18    10    14    1
    19    11    13    1
    20    11    15    1
    21    12    13   ar
    22    12    17   ar
    23    13    18   ar
    24    14    19   ar
    25    14    24   ar
    26    15    21   ar
    27    15    23   ar
    28    17    20   ar
    29    18    22   ar
    30    19    27   ar
    31    20    22   ar
    32    21    25   ar
    33    23    26   ar
    34    24    28   ar
    35    25    29   ar
    36    26    29   ar
    37    27    30   ar
    38    28    30   ar
    39    31    34    1
    40    33    35    1
    41    34    37    1
    42     8    38    1
    43     9    39    1
    44    10    40    1
    45    11    41    1
    46    17    42    1
    47    18    43    1
    48    21    44    1
    49    22    45    1
    50    23    46    1
    51    24    47    1
    52    26    48    1
    53    27    49    1
    54    28    50    1
    55    31    51    1
    56    31    52    1
    57    32    53    1
    58    32    54    1
    59    33    55    1
    60    33    56    1
    61    34    57    1
    62    34    58    1
    63    35    59    1
    64    35    60    1
    65    36    61    1
    66    36    62    1
    67    36    63    1
    68    37    64    1
    69    37    65    1
    70    37    66    1
@<TRIPOS>MOLECULE
178103
 66 70 0 0 0
SMALL
GASTEIGER

@<TRIPOS>ATOM
      1 O          -1.2006    3.3931    0.1776 O.co2   1  LIG1       -0.5495
      2 O          -0.7979    2.5181    2.2380 O.co2   1  LIG1       -0.5495
      3 O           1.8272   -4.1358    1.7621 O.3     1  LIG1       -0.4920
      4 O           3.1678    1.6918    1.2040 O.3     1  LIG1       -0.4893
      5 O          -4.8498   -2.0452   -2.3619 O.3     1  LIG1       -0.4526
      6 O          -6.4945   -0.2915   -2.1460 O.3     1  LIG1       -0.4526
      7 O           4.5590    1.1048   -3.4655 O.3     1  LIG1       -0.4950
      8 O           5.6158    2.9868    3.5691 O.3     1  LIG1       -0.3917
      9 C          -0.7317    1.0892    0.3353 C.3     1  LIG1        0.0203
     10 C           0.6715    0.5409    0.6893 C.3     1  LIG1        0.0218
     11 C          -1.7807    0.1341    0.9551 C.3     1  LIG1        0.0184
     12 C           0.3809   -0.9153    0.9859 C.ar    1  LIG1       -0.0320
     13 C          -0.9848   -1.1362    1.1636 C.ar    1  LIG1       -0.0353
     14 C           1.7295    0.7365   -0.3962 C.ar    1  LIG1        0.0025
     15 C          -3.0328    0.0228    0.0866 C.ar    1  LIG1       -0.0356
     16 C          -0.9100    2.4611    0.9811 C.2     1  LIG1        0.0466
     17 C           1.2997   -1.9391    1.1913 C.ar    1  LIG1       -0.0159
     18 C          -1.4466   -2.3804    1.5765 C.ar    1  LIG1       -0.0542
     19 C           2.9809    1.3153   -0.0985 C.ar    1  LIG1        0.1278
     20 C           0.8435   -3.2000    1.5837 C.ar    1  LIG1        0.1208
     21 C          -3.2639   -1.0394   -0.8057 C.ar    1  LIG1       -0.0124
     22 C          -0.5293   -3.4198    1.7658 C.ar    1  LIG1       -0.0196
     23 C          -3.9998    1.0561    0.1787 C.ar    1  LIG1       -0.0543
     24 C           1.4922    0.2975   -1.7103 C.ar    1  LIG1       -0.0510
     25 C          -4.4549   -1.0655   -1.5027 C.ar    1  LIG1        0.1665
     26 C          -5.1878    1.0166   -0.5587 C.ar    1  LIG1       -0.0159
     27 C           3.9480    1.4635   -1.1043 C.ar    1  LIG1        0.0221
     28 C           2.4630    0.4445   -2.7019 C.ar    1  LIG1       -0.0194
     29 C          -5.3927   -0.0681   -1.3796 C.ar    1  LIG1        0.1662
     30 C           3.6936    1.0268   -2.4064 C.ar    1  LIG1        0.1236
     31 C           1.4762   -5.2884    2.5244 C.3     1  LIG1        0.0893
     32 C          -6.1522   -1.5587   -2.7405 C.3     1  LIG1        0.2332
     33 C           4.4260    2.2215    1.5987 C.3     1  LIG1        0.1126
     34 C           2.7559   -6.0301    2.9049 C.3     1  LIG1       -0.0215
     35 C           4.3500    2.5423    3.0869 C.3     1  LIG1        0.0783
     36 C           5.8360    1.6735   -3.2089 C.3     1  LIG1        0.0788
     37 C           3.6590   -5.1934    3.8014 C.3     1  LIG1       -0.0622
     38 H           5.4775    3.2102    4.5059 H       1  LIG1        0.2095
     39 H          -0.8779    1.1763   -0.7487 H       1  LIG1        0.0379
     40 H           1.0197    0.9735    1.6341 H       1  LIG1        0.0405
     41 H          -2.1034    0.4529    1.9557 H       1  LIG1        0.0404
     42 H           2.3629   -1.7529    1.0738 H       1  LIG1        0.0657
     43 H          -2.5059   -2.5439    1.7502 H       1  LIG1        0.0622
     44 H          -2.5406   -1.8338   -0.9499 H       1  LIG1        0.0658
     45 H          -0.9145   -4.3889    2.0615 H       1  LIG1        0.0654
     46 H          -3.8088    1.9119    0.8286 H       1  LIG1        0.0622
     47 H           0.5435   -0.1690   -1.9669 H       1  LIG1        0.0623
     48 H          -5.9149    1.8159   -0.4832 H       1  LIG1        0.0655
     49 H           4.8980    1.9212   -0.8671 H       1  LIG1        0.0691
     50 H           2.2528    0.1014   -3.7109 H       1  LIG1        0.0654
     51 H           0.8485   -5.9499    1.9159 H       1  LIG1        0.0696
     52 H           0.9385   -5.0087    3.4390 H       1  LIG1        0.0696
     53 H          -6.9024   -2.2991   -2.4377 H       1  LIG1        0.1166
     54 H          -6.1850   -1.4558   -3.8310 H       1  LIG1        0.1166
     55 H           4.6588    3.1397    1.0460 H       1  LIG1        0.0720
     56 H           5.2254    1.4907    1.4256 H       1  LIG1        0.0720
     57 H           3.3133   -6.2927    1.9983 H       1  LIG1        0.0295
     58 H           2.4965   -6.9612    3.4203 H       1  LIG1        0.0295
     59 H           3.6045    3.3238    3.2698 H       1  LIG1        0.0591
     60 H           4.0471    1.6562    3.6553 H       1  LIG1        0.0591
     61 H           6.4056    1.6512   -4.1430 H       1  LIG1        0.0660
     62 H           6.3899    1.0849   -2.4698 H       1  LIG1        0.0660
     63 H           5.7485    2.7198   -2.8981 H       1  LIG1        0.0660
     64 H           3.9964   -4.2856    3.2910 H       1  LIG1        0.0231
     65 H           4.5458   -5.7679    4.0865 H       1  LIG1        0.0231
     66 H           3.1364   -4.8979    4.7169 H       1  LIG1        0.0231
@<TRIPOS>BOND
     1     1    16   ar
     2     2    16   ar
     3     3    20    1
     4     3    31    1
     5     4    19    1
     6     4    33    1
     7     5    25    1
     8     5    32    1
     9     6    29    1
    10     6    32    1
    11     7    30    1
    12     7    36    1
    13     8    35    1
    14     9    10    1
    15     9    11    1
    16     9    16    1
    17    10    12    1
    18    10    14    1
    19    11    13    1
    20    11    15    1
    21    12    13   ar
    22    12    17   ar
    23    13    18   ar
    24    14    19   ar
    25    14    24   ar
    26    15    21   ar
    27    15    23   ar
    28    17    20   ar
    29    18    22   ar
    30    19    27   ar
    31    20    22   ar
    32    21    25   ar
    33    23    26   ar
    34    24    28   ar
    35    25    29   ar
    36    26    29   ar
    37    27    30   ar
    38    28    30   ar
    39    31    34    1
    40    33    35    1
    41    34    37    1
    42     8    38    1
    43     9    39    1
    44    10    40    1
    45    11    41    1
    46    17    42    1
    47    18    43    1
    48    21    44    1
    49    22    45    1
    50    23    46    1
    51    24    47    1
    52    26    48    1
    53    27    49    1
    54    28    50    1
    55    31    51    1
    56    31    52    1
    57    32    53    1
    58    32    54    1
    59    33    55    1
    60    33    56    1
    61    34    57    1
    62    34    58    1
    63    35    59    1
    64    35    60    1
    65    36    61    1
    66    36    62    1
    67    36    63    1
    68    37    64    1
    69    37    65    1
    70    37    66    1
@<TRIPOS>MOLECULE
178103
 66 70 0 0 0
SMALL
GASTEIGER

@<TRIPOS>ATOM
      1 O          -0.9332    3.4007   -0.0994 O.co2   1  LIG1       -0.5495
      2 O          -0.9584    2.5744    2.0208 O.co2   1  LIG1       -0.5495
      3 O           1.6417   -4.2753    1.5651 O.3     1  LIG1       -0.4920
      4 O           0.5100   -0.3460   -2.2928 O.3     1  LIG1       -0.4893
      5 O          -6.7338    0.8719    0.3833 O.3     1  LIG1       -0.4526
      6 O          -6.8218   -0.3082   -1.7209 O.3     1  LIG1       -0.4526
      7 O           4.9336    1.6541   -3.0151 O.3     1  LIG1       -0.4950
      8 O          -1.8552   -0.2732   -4.0942 O.3     1  LIG1       -0.3917
      9 C          -0.8575    1.0680    0.1834 C.3     1  LIG1        0.0203
     10 C           0.5621    0.5446    0.4927 C.3     1  LIG1        0.0218
     11 C          -1.8464    0.1239    0.9101 C.3     1  LIG1        0.0184
     12 C           0.3138   -0.9205    0.7821 C.ar    1  LIG1       -0.0320
     13 C          -1.0420   -1.1566    1.0223 C.ar    1  LIG1       -0.0353
     14 C           1.6389    0.8228   -0.5520 C.ar    1  LIG1        0.0025
     15 C          -3.1695   -0.0254    0.1743 C.ar    1  LIG1       -0.0356
     16 C          -0.9278    2.4763    0.7629 C.2     1  LIG1        0.0466
     17 C           1.2567   -1.9317    0.9387 C.ar    1  LIG1       -0.0159
     18 C          -1.4834   -2.4180    1.3967 C.ar    1  LIG1       -0.0542
     19 C           1.6206    0.3540   -1.8811 C.ar    1  LIG1        0.1278
     20 C           0.8249   -3.1992    1.3335 C.ar    1  LIG1        0.1208
     21 C          -4.3359    0.5490    0.7056 C.ar    1  LIG1       -0.0124
     22 C          -0.5435   -3.4427    1.5323 C.ar    1  LIG1       -0.0196
     23 C          -3.2459   -0.7204   -1.0546 C.ar    1  LIG1       -0.0543
     24 C           2.7515    1.5784   -0.1266 C.ar    1  LIG1       -0.0510
     25 C          -5.5154    0.3976    0.0049 C.ar    1  LIG1        0.1665
     26 C          -4.4484   -0.8455   -1.7535 C.ar    1  LIG1       -0.0159
     27 C           2.7231    0.6095   -2.7206 C.ar    1  LIG1        0.0221
     28 C           3.8265    1.8363   -0.9767 C.ar    1  LIG1       -0.0194
     29 C          -5.5685   -0.2781   -1.1925 C.ar    1  LIG1        0.1662
     30 C           3.8196    1.3520   -2.2780 C.ar    1  LIG1        0.1236
     31 C           2.9762   -3.9957    1.9985 C.3     1  LIG1        0.0893
     32 C          -7.5448    0.4464   -0.7284 C.3     1  LIG1        0.2332
     33 C           0.4785   -0.7725   -3.6595 C.3     1  LIG1        0.1126
     34 C           3.0055   -3.4882    3.4411 C.3     1  LIG1       -0.0215
     35 C          -0.9025   -1.3285   -3.9850 C.3     1  LIG1        0.0783
     36 C           4.8653    1.3900   -4.4106 C.3     1  LIG1        0.0788
     37 C           4.4236   -3.2398    3.9235 C.3     1  LIG1       -0.0622
     38 H          -1.7443    0.2925   -3.3020 H       1  LIG1        0.2095
     39 H          -1.0536    1.1022   -0.8942 H       1  LIG1        0.0379
     40 H           0.9089    0.9566    1.4524 H       1  LIG1        0.0405
     41 H          -2.0512    0.4439    1.9399 H       1  LIG1        0.0404
     42 H           2.2994   -1.6998    0.7646 H       1  LIG1        0.0657
     43 H          -2.5339   -2.6009    1.5981 H       1  LIG1        0.0622
     44 H          -4.3118    1.1070    1.6365 H       1  LIG1        0.0658
     45 H          -0.8726   -4.4331    1.8344 H       1  LIG1        0.0654
     46 H          -2.3439   -1.1641   -1.4648 H       1  LIG1        0.0622
     47 H           2.7781    1.9832    0.8843 H       1  LIG1        0.0623
     48 H          -4.4901   -1.3626   -2.7045 H       1  LIG1        0.0655
     49 H           2.7329    0.2224   -3.7294 H       1  LIG1        0.0691
     50 H           4.6648    2.4265   -0.6182 H       1  LIG1        0.0654
     51 H           3.5027   -3.3318    1.3048 H       1  LIG1        0.0696
     52 H           3.5132   -4.9509    1.9546 H       1  LIG1        0.0696
     53 H          -7.9775    1.3321   -1.2079 H       1  LIG1        0.1166
     54 H          -8.3612   -0.1775   -0.3467 H       1  LIG1        0.1166
     55 H           1.2251   -1.5609   -3.8057 H       1  LIG1        0.0720
     56 H           0.6666    0.0765   -4.3274 H       1  LIG1        0.0720
     57 H           2.5120   -4.2182    4.0939 H       1  LIG1        0.0295
     58 H           2.4276   -2.5623    3.5364 H       1  LIG1        0.0295
     59 H          -0.8830   -1.8452   -4.9490 H       1  LIG1        0.0591
     60 H          -1.2446   -2.0301   -3.2199 H       1  LIG1        0.0591
     61 H           5.7739    1.7886   -4.8720 H       1  LIG1        0.0660
     62 H           4.0096    1.8945   -4.8724 H       1  LIG1        0.0660
     63 H           4.8411    0.3126   -4.6048 H       1  LIG1        0.0660
     64 H           5.0183   -4.1579    3.8868 H       1  LIG1        0.0231
     65 H           4.4142   -2.8821    4.9580 H       1  LIG1        0.0231
     66 H           4.9190   -2.4825    3.3076 H       1  LIG1        0.0231
@<TRIPOS>BOND
     1     1    16   ar
     2     2    16   ar
     3     3    20    1
     4     3    31    1
     5     4    19    1
     6     4    33    1
     7     5    25    1
     8     5    32    1
     9     6    29    1
    10     6    32    1
    11     7    30    1
    12     7    36    1
    13     8    35    1
    14     9    10    1
    15     9    11    1
    16     9    16    1
    17    10    12    1
    18    10    14    1
    19    11    13    1
    20    11    15    1
    21    12    13   ar
    22    12    17   ar
    23    13    18   ar
    24    14    19   ar
    25    14    24   ar
    26    15    21   ar
    27    15    23   ar
    28    17    20   ar
    29    18    22   ar
    30    19    27   ar
    31    20    22   ar
    32    21    25   ar
    33    23    26   ar
    34    24    28   ar
    35    25    29   ar
    36    26    29   ar
    37    27    30   ar
    38    28    30   ar
    39    31    34    1
    40    33    35    1
    41    34    37    1
    42     8    38    1
    43     9    39    1
    44    10    40    1
    45    11    41    1
    46    17    42    1
    47    18    43    1
    48    21    44    1
    49    22    45    1
    50    23    46    1
    51    24    47    1
    52    26    48    1
    53    27    49    1
    54    28    50    1
    55    31    51    1
    56    31    52    1
    57    32    53    1
    58    32    54    1
    59    33    55    1
    60    33    56    1
    61    34    57    1
    62    34    58    1
    63    35    59    1
    64    35    60    1
    65    36    61    1
    66    36    62    1
    67    36    63    1
    68    37    64    1
    69    37    65    1
    70    37    66    1
@<TRIPOS>MOLECULE
178103
 66 70 0 0 0
SMALL
GASTEIGER

@<TRIPOS>ATOM
      1 O          -0.8210    2.4812    2.2976 O.co2   1  LIG1       -0.5495
      2 O          -0.7329    3.4253    0.2254 O.co2   1  LIG1       -0.5495
      3 O           1.5437   -4.4733    1.2525 O.3     1  LIG1       -0.4920
      4 O           3.4421    0.3326    1.1345 O.3     1  LIG1       -0.4893
      5 O          -6.6416    0.6740    0.3593 O.3     1  LIG1       -0.4526
      6 O          -6.5841   -0.2729   -1.8609 O.3     1  LIG1       -0.4526
      7 O           4.7841    1.6845   -3.2491 O.3     1  LIG1       -0.4950
      8 O           4.3641   -1.0354    3.4280 O.3     1  LIG1       -0.3917
      9 C          -0.7283    1.0823    0.3812 C.3     1  LIG1        0.0203
     10 C           0.6975    0.5006    0.5985 C.3     1  LIG1        0.0218
     11 C          -1.7432    0.1176    1.0307 C.3     1  LIG1        0.0184
     12 C           0.3903   -0.9790    0.7860 C.ar    1  LIG1       -0.0320
     13 C          -0.9598   -1.1738    1.0905 C.ar    1  LIG1       -0.0353
     14 C           1.7623    0.8131   -0.4621 C.ar    1  LIG1        0.0025
     15 C          -3.0271   -0.0058    0.2104 C.ar    1  LIG1       -0.0356
     16 C          -0.7647    2.4559    1.0371 C.2     1  LIG1        0.0466
     17 C           1.2724   -2.0591    0.8135 C.ar    1  LIG1       -0.0159
     18 C          -1.4429   -2.4265    1.4477 C.ar    1  LIG1       -0.0542
     19 C           3.1383    0.7102   -0.1498 C.ar    1  LIG1        0.1278
     20 C           0.7975   -3.3292    1.1563 C.ar    1  LIG1        0.1208
     21 C          -4.2445    0.4396    0.7511 C.ar    1  LIG1       -0.0124
     22 C          -0.5562   -3.5015    1.4798 C.ar    1  LIG1       -0.0196
     23 C          -3.0132   -0.5574   -1.0979 C.ar    1  LIG1       -0.0543
     24 C           1.4237    1.2261   -1.7629 C.ar    1  LIG1       -0.0510
     25 C          -5.3851    0.3067   -0.0144 C.ar    1  LIG1        0.1665
     26 C          -4.1838   -0.6755   -1.8517 C.ar    1  LIG1       -0.0159
     27 C           4.1099    0.9775   -1.1255 C.ar    1  LIG1        0.0221
     28 C           2.3999    1.5363   -2.7160 C.ar    1  LIG1       -0.0194
     29 C          -5.3545   -0.2346   -1.2793 C.ar    1  LIG1        0.1662
     30 C           3.7457    1.4197   -2.3963 C.ar    1  LIG1        0.1236
     31 C           2.8496   -4.4866    0.6772 C.3     1  LIG1        0.0893
     32 C          -7.3849    0.3334   -0.8265 C.3     1  LIG1        0.2332
     33 C           4.8027    0.4402    1.5556 C.3     1  LIG1        0.1126
     34 C           2.7661   -4.7597   -0.8225 C.3     1  LIG1       -0.0215
     35 C           4.8331    0.2644    3.0701 C.3     1  LIG1        0.0783
     36 C           4.5112    2.6736   -4.2367 C.3     1  LIG1        0.0788
     37 C           4.1401   -4.8248   -1.4629 C.3     1  LIG1       -0.0622
     38 H           3.4464   -1.0791    3.0908 H       1  LIG1        0.2095
     39 H          -0.9779    1.2017   -0.6752 H       1  LIG1        0.0379
     40 H           1.0801    0.8656    1.5619 H       1  LIG1        0.0405
     41 H          -1.9929    0.3931    2.0623 H       1  LIG1        0.0404
     42 H           2.3156   -1.8846    0.5927 H       1  LIG1        0.0657
     43 H          -2.4882   -2.5647    1.7051 H       1  LIG1        0.0622
     44 H          -4.2892    0.8856    1.7398 H       1  LIG1        0.0658
     45 H          -0.9186   -4.4856    1.7630 H       1  LIG1        0.0654
     46 H          -2.0718   -0.8956   -1.5285 H       1  LIG1        0.0622
     47 H           0.3889    1.3492   -2.0659 H       1  LIG1        0.0623
     48 H          -4.1663   -1.0938   -2.8500 H       1  LIG1        0.0655
     49 H           5.1682    0.8701   -0.9181 H       1  LIG1        0.0691
     50 H           2.0679    1.8631   -3.6953 H       1  LIG1        0.0654
     51 H           3.3834   -5.3168    1.1554 H       1  LIG1        0.0696
     52 H           3.4296   -3.5902    0.9195 H       1  LIG1        0.0696
     53 H          -7.8437    1.2445   -1.2280 H       1  LIG1        0.1166
     54 H          -8.1827   -0.3660   -0.5505 H       1  LIG1        0.1166
     55 H           5.2161    1.4241    1.3078 H       1  LIG1        0.0720
     56 H           5.3850   -0.3584    1.0813 H       1  LIG1        0.0720
     57 H           2.1671   -3.9887   -1.3195 H       1  LIG1        0.0295
     58 H           2.2351   -5.7053   -0.9878 H       1  LIG1        0.0295
     59 H           5.8543    0.3723    3.4472 H       1  LIG1        0.0591
     60 H           4.1927    1.0015    3.5652 H       1  LIG1        0.0591
     61 H           5.4632    2.9531   -4.6989 H       1  LIG1        0.0660
     62 H           4.0792    3.5776   -3.7925 H       1  LIG1        0.0660
     63 H           3.8652    2.2743   -5.0249 H       1  LIG1        0.0660
     64 H           4.6605   -3.8665   -1.3687 H       1  LIG1        0.0231
     65 H           4.0501   -5.0595   -2.5283 H       1  LIG1        0.0231
     66 H           4.7563   -5.5997   -0.9958 H       1  LIG1        0.0231
@<TRIPOS>BOND
     1     1    16   ar
     2     2    16   ar
     3     3    20    1
     4     3    31    1
     5     4    19    1
     6     4    33    1
     7     5    25    1
     8     5    32    1
     9     6    29    1
    10     6    32    1
    11     7    30    1
    12     7    36    1
    13     8    35    1
    14     9    10    1
    15     9    11    1
    16     9    16    1
    17    10    12    1
    18    10    14    1
    19    11    13    1
    20    11    15    1
    21    12    13   ar
    22    12    17   ar
    23    13    18   ar
    24    14    19   ar
    25    14    24   ar
    26    15    21   ar
    27    15    23   ar
    28    17    20   ar
    29    18    22   ar
    30    19    27   ar
    31    20    22   ar
    32    21    25   ar
    33    23    26   ar
    34    24    28   ar
    35    25    29   ar
    36    26    29   ar
    37    27    30   ar
    38    28    30   ar
    39    31    34    1
    40    33    35    1
    41    34    37    1
    42     8    38    1
    43     9    39    1
    44    10    40    1
    45    11    41    1
    46    17    42    1
    47    18    43    1
    48    21    44    1
    49    22    45    1
    50    23    46    1
    51    24    47    1
    52    26    48    1
    53    27    49    1
    54    28    50    1
    55    31    51    1
    56    31    52    1
    57    32    53    1
    58    32    54    1
    59    33    55    1
    60    33    56    1
    61    34    57    1
    62    34    58    1
    63    35    59    1
    64    35    60    1
    65    36    61    1
    66    36    62    1
    67    36    63    1
    68    37    64    1
    69    37    65    1
    70    37    66    1
@<TRIPOS>MOLECULE
178103
 66 70 0 0 0
SMALL
GASTEIGER

@<TRIPOS>ATOM
      1 O          -0.5729    3.4621    0.1958 O.co2   1  LIG1       -0.5495
      2 O          -1.1265    2.5270    2.1947 O.co2   1  LIG1       -0.5495
      3 O           1.7113   -4.2762    1.4822 O.3     1  LIG1       -0.4920
      4 O           0.6152   -0.5335   -1.9921 O.3     1  LIG1       -0.4893
      5 O          -6.6991    0.6567    0.2608 O.3     1  LIG1       -0.4526
      6 O          -6.6471   -0.2833   -1.9618 O.3     1  LIG1       -0.4526
      7 O           4.7912    1.4730   -3.1568 O.3     1  LIG1       -0.4950
      8 O          -0.4247   -3.0935   -2.6311 O.3     1  LIG1       -0.3917
      9 C          -0.7896    1.1190    0.3093 C.3     1  LIG1        0.0203
     10 C           0.6236    0.5865    0.6459 C.3     1  LIG1        0.0218
     11 C          -1.8052    0.1207    0.9136 C.3     1  LIG1        0.0184
     12 C           0.3709   -0.8842    0.9062 C.ar    1  LIG1       -0.0320
     13 C          -0.9931   -1.1533    1.0185 C.ar    1  LIG1       -0.0353
     14 C           1.6872    0.8552   -0.4188 C.ar    1  LIG1        0.0025
     15 C          -3.0803   -0.0075    0.0940 C.ar    1  LIG1       -0.0356
     16 C          -0.8472    2.4952    0.9630 C.2     1  LIG1        0.0466
     17 C           1.3191   -1.8891    1.0693 C.ar    1  LIG1       -0.0159
     18 C          -1.4341   -2.4447    1.2702 C.ar    1  LIG1       -0.0542
     19 C           1.6814    0.2690   -1.7011 C.ar    1  LIG1        0.1278
     20 C           0.8883   -3.1916    1.3217 C.ar    1  LIG1        0.1208
     21 C          -4.2994    0.4335    0.6386 C.ar    1  LIG1       -0.0124
     22 C          -0.4863   -3.4658    1.3995 C.ar    1  LIG1       -0.0196
     23 C          -3.0707   -0.5553   -1.2109 C.ar    1  LIG1       -0.0543
     24 C           2.7412    1.7227   -0.0803 C.ar    1  LIG1       -0.0510
     25 C          -5.4430    0.2978   -0.1203 C.ar    1  LIG1        0.1665
     26 C          -4.2430   -0.6749   -1.9615 C.ar    1  LIG1       -0.0159
     27 C           2.7606    0.4922   -2.5647 C.ar    1  LIG1        0.0221
     28 C           3.7926    1.9688   -0.9659 C.ar    1  LIG1       -0.0194
     29 C          -5.4142   -0.2409   -1.3864 C.ar    1  LIG1        0.1662
     30 C           3.8117    1.3436   -2.2077 C.ar    1  LIG1        0.1236
     31 C           3.0454   -4.0086    1.9210 C.3     1  LIG1        0.0893
     32 C          -7.4472    0.3094   -0.9197 C.3     1  LIG1        0.2332
     33 C           0.3304   -0.9018   -3.3409 C.3     1  LIG1        0.1126
     34 C           4.0081   -3.9785    0.7363 C.3     1  LIG1       -0.0215
     35 C           0.5133   -2.4102   -3.4619 C.3     1  LIG1        0.0783
     36 C           5.8202    2.4148   -2.8820 C.3     1  LIG1        0.0788
     37 C           5.4137   -3.6020    1.1712 C.3     1  LIG1       -0.0622
     38 H          -0.3282   -2.7037   -1.7371 H       1  LIG1        0.2095
     39 H          -0.9334    1.2318   -0.7730 H       1  LIG1        0.0379
     40 H           0.9764    0.9928    1.6053 H       1  LIG1        0.0405
     41 H          -2.0779    0.3831    1.9434 H       1  LIG1        0.0404
     42 H           2.3665   -1.6299    0.9788 H       1  LIG1        0.0657
     43 H          -2.4935   -2.6598    1.3686 H       1  LIG1        0.0622
     44 H          -4.3416    0.8782    1.6283 H       1  LIG1        0.0658
     45 H          -0.8193   -4.4829    1.5871 H       1  LIG1        0.0654
     46 H          -2.1312   -0.8917   -1.6405 H       1  LIG1        0.0622
     47 H           2.7364    2.2250    0.8868 H       1  LIG1        0.0623
     48 H          -4.2256   -1.0937   -2.9606 H       1  LIG1        0.0655
     49 H           2.8257    0.0064   -3.5306 H       1  LIG1        0.0691
     50 H           4.5731    2.6494   -0.6459 H       1  LIG1        0.0654
     51 H           3.3256   -4.8388    2.5804 H       1  LIG1        0.0696
     52 H           3.1083   -3.1049    2.5402 H       1  LIG1        0.0696
     53 H          -7.9212    1.2155   -1.3144 H       1  LIG1        0.1166
     54 H          -8.2333   -0.4012   -0.6386 H       1  LIG1        0.1166
     55 H           0.9108   -0.3625   -4.0935 H       1  LIG1        0.0720
     56 H          -0.7209   -0.6473   -3.5185 H       1  LIG1        0.0720
     57 H           3.6616   -3.2754   -0.0283 H       1  LIG1        0.0295
     58 H           4.0185   -4.9615    0.2516 H       1  LIG1        0.0295
     59 H           0.3482   -2.7360   -4.4922 H       1  LIG1        0.0591
     60 H           1.5159   -2.7132   -3.1481 H       1  LIG1        0.0591
     61 H           6.4844    2.4464   -3.7510 H       1  LIG1        0.0660
     62 H           6.4173    2.1028   -2.0191 H       1  LIG1        0.0660
     63 H           5.4124    3.4210   -2.7399 H       1  LIG1        0.0660
     64 H           5.4282   -2.6074    1.6298 H       1  LIG1        0.0231
     65 H           6.0880   -3.5861    0.3087 H       1  LIG1        0.0231
     66 H           5.8069   -4.3207    1.8978 H       1  LIG1        0.0231
@<TRIPOS>BOND
     1     1    16   ar
     2     2    16   ar
     3     3    20    1
     4     3    31    1
     5     4    19    1
     6     4    33    1
     7     5    25    1
     8     5    32    1
     9     6    29    1
    10     6    32    1
    11     7    30    1
    12     7    36    1
    13     8    35    1
    14     9    10    1
    15     9    11    1
    16     9    16    1
    17    10    12    1
    18    10    14    1
    19    11    13    1
    20    11    15    1
    21    12    13   ar
    22    12    17   ar
    23    13    18   ar
    24    14    19   ar
    25    14    24   ar
    26    15    21   ar
    27    15    23   ar
    28    17    20   ar
    29    18    22   ar
    30    19    27   ar
    31    20    22   ar
    32    21    25   ar
    33    23    26   ar
    34    24    28   ar
    35    25    29   ar
    36    26    29   ar
    37    27    30   ar
    38    28    30   ar
    39    31    34    1
    40    33    35    1
    41    34    37    1
    42     8    38    1
    43     9    39    1
    44    10    40    1
    45    11    41    1
    46    17    42    1
    47    18    43    1
    48    21    44    1
    49    22    45    1
    50    23    46    1
    51    24    47    1
    52    26    48    1
    53    27    49    1
    54    28    50    1
    55    31    51    1
    56    31    52    1
    57    32    53    1
    58    32    54    1
    59    33    55    1
    60    33    56    1
    61    34    57    1
    62    34    58    1
    63    35    59    1
    64    35    60    1
    65    36    61    1
    66    36    62    1
    67    36    63    1
    68    37    64    1
    69    37    65    1
    70    37    66    1
@<TRIPOS>MOLECULE
178103
 66 70 0 0 0
SMALL
GASTEIGER

@<TRIPOS>ATOM
      1 O          -0.5980    2.5700    2.3000 O.co2   1  LIG1       -0.5495
      2 O          -1.7177    3.3146    0.4664 O.co2   1  LIG1       -0.5495
      3 O           1.7045   -4.2236    1.6857 O.3     1  LIG1       -0.4920
      4 O           2.0651    3.0856    0.2523 O.3     1  LIG1       -0.4893
      5 O          -6.6470   -0.3370    0.3260 O.3     1  LIG1       -0.4526
      6 O          -6.4953   -0.5754   -2.0716 O.3     1  LIG1       -0.4526
      7 O           4.4440    1.6074   -3.5915 O.3     1  LIG1       -0.4950
      8 O           1.3196    6.6749    0.2598 O.3     1  LIG1       -0.3917
      9 C          -0.7029    1.1951    0.3550 C.3     1  LIG1        0.0203
     10 C           0.7117    0.6453    0.6532 C.3     1  LIG1        0.0218
     11 C          -1.7455    0.1831    0.8921 C.3     1  LIG1        0.0184
     12 C           0.4371   -0.8142    0.9766 C.ar    1  LIG1       -0.0320
     13 C          -0.9302   -1.0788    1.0465 C.ar    1  LIG1       -0.0353
     14 C           1.6681    0.8801   -0.5259 C.ar    1  LIG1        0.0025
     15 C          -2.9884   -0.0050    0.0300 C.ar    1  LIG1       -0.0356
     16 C          -1.0248    2.4783    1.1154 C.2     1  LIG1        0.0466
     17 C           1.3712   -1.8213    1.2246 C.ar    1  LIG1       -0.0159
     18 C          -1.3892   -2.3571    1.3331 C.ar    1  LIG1       -0.0542
     19 C           2.3328    2.1109   -0.6727 C.ar    1  LIG1        0.1278
     20 C           0.9232   -3.1205    1.4723 C.ar    1  LIG1        0.1208
     21 C          -4.2483   -0.0546    0.6575 C.ar    1  LIG1       -0.0124
     22 C          -0.4576   -3.3777    1.5295 C.ar    1  LIG1       -0.0196
     23 C          -2.9153   -0.1681   -1.3739 C.ar    1  LIG1       -0.0543
     24 C           1.8861   -0.0996   -1.5137 C.ar    1  LIG1       -0.0510
     25 C          -5.3662   -0.2517   -0.1252 C.ar    1  LIG1        0.1665
     26 C          -4.0688   -0.3537   -2.1447 C.ar    1  LIG1       -0.0159
     27 C           3.2614    2.2978   -1.7069 C.ar    1  LIG1        0.0221
     28 C           2.8016    0.0988   -2.5542 C.ar    1  LIG1       -0.0194
     29 C          -5.2789   -0.3929   -1.4892 C.ar    1  LIG1        0.1662
     30 C           3.5070    1.2935   -2.6441 C.ar    1  LIG1        0.1236
     31 C           3.1112   -4.1118    1.4809 C.3     1  LIG1        0.0893
     32 C          -7.3556   -0.5058   -0.9164 C.3     1  LIG1        0.2332
     33 C           2.0674    4.4238   -0.2493 C.3     1  LIG1        0.1126
     34 C           3.8346   -3.7513    2.7764 C.3     1  LIG1       -0.0215
     35 C           1.1548    5.2952    0.6045 C.3     1  LIG1        0.0783
     36 C           4.7773    0.5869   -4.5225 C.3     1  LIG1        0.0788
     37 C           3.6290   -4.8003    3.8613 C.3     1  LIG1       -0.0622
     38 H           0.5504    7.1182    0.6602 H       1  LIG1        0.2095
     39 H          -0.8207    1.3922   -0.7177 H       1  LIG1        0.0379
     40 H           1.1611    1.0802    1.5543 H       1  LIG1        0.0405
     41 H          -2.0700    0.4607    1.9055 H       1  LIG1        0.0404
     42 H           2.4229   -1.5613    1.2096 H       1  LIG1        0.0657
     43 H          -2.4519   -2.5626    1.4098 H       1  LIG1        0.0622
     44 H          -4.3447    0.0659    1.7313 H       1  LIG1        0.0658
     45 H          -0.8056   -4.3843    1.7422 H       1  LIG1        0.0654
     46 H          -1.9492   -0.1417   -1.8731 H       1  LIG1        0.0622
     47 H           1.3447   -1.0424   -1.4824 H       1  LIG1        0.0623
     48 H          -4.0093   -0.4584   -3.2209 H       1  LIG1        0.0655
     49 H           3.8153    3.2274   -1.7885 H       1  LIG1        0.0691
     50 H           2.9355   -0.7046   -3.2696 H       1  LIG1        0.0654
     51 H           3.3640   -3.4257    0.6650 H       1  LIG1        0.0696
     52 H           3.4538   -5.0986    1.1465 H       1  LIG1        0.0696
     53 H          -8.0475    0.3351   -1.0430 H       1  LIG1        0.1166
     54 H          -7.9392   -1.4320   -0.8618 H       1  LIG1        0.1166
     55 H           1.7168    4.4757   -1.2905 H       1  LIG1        0.0720
     56 H           3.0881    4.8212   -0.2154 H       1  LIG1        0.0720
     57 H           3.4765   -2.7884    3.1557 H       1  LIG1        0.0295
     58 H           4.9064   -3.6496    2.5737 H       1  LIG1        0.0295
     59 H           0.1101    5.0288    0.4308 H       1  LIG1        0.0591
     60 H           1.3666    5.1691    1.6691 H       1  LIG1        0.0591
     61 H           5.5518    0.9823   -5.1873 H       1  LIG1        0.0660
     62 H           3.9152    0.3180   -5.1401 H       1  LIG1        0.0660
     63 H           5.1920   -0.2910   -4.0154 H       1  LIG1        0.0660
     64 H           2.5731   -4.8885    4.1354 H       1  LIG1        0.0231
     65 H           4.1890   -4.5277    4.7613 H       1  LIG1        0.0231
     66 H           3.9807   -5.7822    3.5281 H       1  LIG1        0.0231
@<TRIPOS>BOND
     1     1    16   ar
     2     2    16   ar
     3     3    20    1
     4     3    31    1
     5     4    19    1
     6     4    33    1
     7     5    25    1
     8     5    32    1
     9     6    29    1
    10     6    32    1
    11     7    30    1
    12     7    36    1
    13     8    35    1
    14     9    10    1
    15     9    11    1
    16     9    16    1
    17    10    12    1
    18    10    14    1
    19    11    13    1
    20    11    15    1
    21    12    13   ar
    22    12    17   ar
    23    13    18   ar
    24    14    19   ar
    25    14    24   ar
    26    15    21   ar
    27    15    23   ar
    28    17    20   ar
    29    18    22   ar
    30    19    27   ar
    31    20    22   ar
    32    21    25   ar
    33    23    26   ar
    34    24    28   ar
    35    25    29   ar
    36    26    29   ar
    37    27    30   ar
    38    28    30   ar
    39    31    34    1
    40    33    35    1
    41    34    37    1
    42     8    38    1
    43     9    39    1
    44    10    40    1
    45    11    41    1
    46    17    42    1
    47    18    43    1
    48    21    44    1
    49    22    45    1
    50    23    46    1
    51    24    47    1
    52    26    48    1
    53    27    49    1
    54    28    50    1
    55    31    51    1
    56    31    52    1
    57    32    53    1
    58    32    54    1
    59    33    55    1
    60    33    56    1
    61    34    57    1
    62    34    58    1
    63    35    59    1
    64    35    60    1
    65    36    61    1
    66    36    62    1
    67    36    63    1
    68    37    64    1
    69    37    65    1
    70    37    66    1
@<TRIPOS>MOLECULE
178103
 66 70 0 0 0
SMALL
GASTEIGER

@<TRIPOS>ATOM
      1 O          -0.8736    2.4632    2.1471 O.co2   1  LIG1       -0.5495
      2 O          -0.8537    3.3150    0.0391 O.co2   1  LIG1       -0.5495
      3 O           1.8287   -4.3509    1.6332 O.3     1  LIG1       -0.4920
      4 O           1.0894   -1.0462   -1.7963 O.3     1  LIG1       -0.4893
      5 O          -4.8521   -2.1734   -2.2730 O.3     1  LIG1       -0.4526
      6 O          -6.4563   -0.3794   -2.0805 O.3     1  LIG1       -0.4526
      7 O           4.6740    1.7239   -3.2766 O.3     1  LIG1       -0.4950
      8 O           1.1811   -4.4096   -3.2259 O.3     1  LIG1       -0.3917
      9 C          -0.6929    0.9766    0.3016 C.3     1  LIG1        0.0203
     10 C           0.7214    0.4817    0.6643 C.3     1  LIG1        0.0218
     11 C          -1.7061    0.0172    0.9666 C.3     1  LIG1        0.0184
     12 C           0.4830   -0.9707    1.0092 C.ar    1  LIG1       -0.0320
     13 C          -0.8791   -1.2339    1.1776 C.ar    1  LIG1       -0.0353
     14 C           1.7537    0.7746   -0.4226 C.ar    1  LIG1        0.0025
     15 C          -2.9781   -0.1050    0.1314 C.ar    1  LIG1       -0.0356
     16 C          -0.8201    2.3790    0.8871 C.2     1  LIG1        0.0466
     17 C           1.4405   -1.9595    1.2173 C.ar    1  LIG1       -0.0159
     18 C          -1.3001   -2.4920    1.5869 C.ar    1  LIG1       -0.0542
     19 C           1.9281    0.0191   -1.5977 C.ar    1  LIG1        0.1278
     20 C           1.0174   -3.2518    1.5280 C.ar    1  LIG1        0.1208
     21 C          -3.2378   -1.1793   -0.7370 C.ar    1  LIG1       -0.0124
     22 C          -0.3475   -3.5044    1.7379 C.ar    1  LIG1       -0.0196
     23 C          -3.9273    0.9470    0.2163 C.ar    1  LIG1       -0.0543
     24 C           2.5619    1.9135   -0.2385 C.ar    1  LIG1       -0.0510
     25 C          -4.4337   -1.1913   -1.4274 C.ar    1  LIG1        0.1665
     26 C          -5.1198    0.9210   -0.5137 C.ar    1  LIG1       -0.0159
     27 C           2.9105    0.3944   -2.5264 C.ar    1  LIG1        0.0221
     28 C           3.5476    2.2692   -1.1620 C.ar    1  LIG1       -0.0194
     29 C          -5.3492   -0.1710   -1.3176 C.ar    1  LIG1        0.1662
     30 C           3.7378    1.4980   -2.3025 C.ar    1  LIG1        0.1236
     31 C           3.1731   -4.1982    1.1761 C.3     1  LIG1        0.0893
     32 C          -6.1386   -1.6566   -2.6666 C.3     1  LIG1        0.2332
     33 C           1.5546   -2.0823   -2.6582 C.3     1  LIG1        0.1126
     34 C           3.7601   -5.5748    0.8666 C.3     1  LIG1       -0.0215
     35 C           0.7607   -3.3505   -2.3687 C.3     1  LIG1        0.0783
     36 C           5.6712    2.6920   -2.9770 C.3     1  LIG1        0.0788
     37 C           3.7181   -6.5236    2.0527 C.3     1  LIG1       -0.0622
     38 H           0.6664   -5.1900   -2.9567 H       1  LIG1        0.2095
     39 H          -0.8353    1.0054   -0.7878 H       1  LIG1        0.0379
     40 H           1.0792    0.9356    1.5999 H       1  LIG1        0.0405
     41 H          -2.0064    0.3475    1.9698 H       1  LIG1        0.0404
     42 H           2.4856   -1.6989    1.1020 H       1  LIG1        0.0657
     43 H          -2.3509   -2.6926    1.7701 H       1  LIG1        0.0622
     44 H          -2.5279   -1.9858   -0.8766 H       1  LIG1        0.0658
     45 H          -0.6695   -4.5040    2.0161 H       1  LIG1        0.0654
     46 H          -3.7156    1.8084    0.8526 H       1  LIG1        0.0622
     47 H           2.4019    2.5510    0.6318 H       1  LIG1        0.0623
     48 H          -5.8295    1.7366   -0.4484 H       1  LIG1        0.0655
     49 H           3.0441   -0.1551   -3.4521 H       1  LIG1        0.0691
     50 H           4.1246    3.1653   -0.9648 H       1  LIG1        0.0654
     51 H           3.7632   -3.7007    1.9547 H       1  LIG1        0.0696
     52 H           3.2199   -3.6126    0.2499 H       1  LIG1        0.0696
     53 H          -6.9101   -2.3769   -2.3691 H       1  LIG1        0.1166
     54 H          -6.1577   -1.5570   -3.7578 H       1  LIG1        0.1166
     55 H           2.6198   -2.2954   -2.4993 H       1  LIG1        0.0720
     56 H           1.4093   -1.7917   -3.7054 H       1  LIG1        0.0720
     57 H           4.7964   -5.4560    0.5300 H       1  LIG1        0.0295
     58 H           3.1968   -6.0278    0.0418 H       1  LIG1        0.0295
     59 H           0.9126   -3.6661   -1.3335 H       1  LIG1        0.0591
     60 H          -0.3114   -3.1785   -2.5095 H       1  LIG1        0.0591
     61 H           6.4049    2.6764   -3.7887 H       1  LIG1        0.0660
     62 H           6.1997    2.4463   -2.0494 H       1  LIG1        0.0660
     63 H           5.2429    3.6984   -2.9343 H       1  LIG1        0.0660
     64 H           4.2488   -6.1051    2.9137 H       1  LIG1        0.0231
     65 H           4.1927   -7.4750    1.7885 H       1  LIG1        0.0231
     66 H           2.6867   -6.7404    2.3520 H       1  LIG1        0.0231
@<TRIPOS>BOND
     1     1    16   ar
     2     2    16   ar
     3     3    20    1
     4     3    31    1
     5     4    19    1
     6     4    33    1
     7     5    25    1
     8     5    32    1
     9     6    29    1
    10     6    32    1
    11     7    30    1
    12     7    36    1
    13     8    35    1
    14     9    10    1
    15     9    11    1
    16     9    16    1
    17    10    12    1
    18    10    14    1
    19    11    13    1
    20    11    15    1
    21    12    13   ar
    22    12    17   ar
    23    13    18   ar
    24    14    19   ar
    25    14    24   ar
    26    15    21   ar
    27    15    23   ar
    28    17    20   ar
    29    18    22   ar
    30    19    27   ar
    31    20    22   ar
    32    21    25   ar
    33    23    26   ar
    34    24    28   ar
    35    25    29   ar
    36    26    29   ar
    37    27    30   ar
    38    28    30   ar
    39    31    34    1
    40    33    35    1
    41    34    37    1
    42     8    38    1
    43     9    39    1
    44    10    40    1
    45    11    41    1
    46    17    42    1
    47    18    43    1
    48    21    44    1
    49    22    45    1
    50    23    46    1
    51    24    47    1
    52    26    48    1
    53    27    49    1
    54    28    50    1
    55    31    51    1
    56    31    52    1
    57    32    53    1
    58    32    54    1
    59    33    55    1
    60    33    56    1
    61    34    57    1
    62    34    58    1
    63    35    59    1
    64    35    60    1
    65    36    61    1
    66    36    62    1
    67    36    63    1
    68    37    64    1
    69    37    65    1
    70    37    66    1
@<TRIPOS>MOLECULE
178103
 66 70 0 0 0
SMALL
GASTEIGER

@<TRIPOS>ATOM
      1 O           0.0397    3.2996    0.6393 O.co2   1  LIG1       -0.5495
      2 O          -1.6304    2.6290    2.0168 O.co2   1  LIG1       -0.5495
      3 O           1.7027   -4.3676    1.4574 O.3     1  LIG1       -0.4920
      4 O           0.5312   -0.6768   -2.0098 O.3     1  LIG1       -0.4893
      5 O          -4.9713   -2.2072   -2.1030 O.3     1  LIG1       -0.4526
      6 O          -6.4779   -0.3226   -2.1114 O.3     1  LIG1       -0.4526
      7 O           4.6149    1.6962   -3.3113 O.3     1  LIG1       -0.4950
      8 O          -1.5686   -2.0831   -3.4156 O.3     1  LIG1       -0.3917
      9 C          -0.7634    1.0796    0.4205 C.3     1  LIG1        0.0203
     10 C           0.6586    0.5106    0.6405 C.3     1  LIG1        0.0218
     11 C          -1.7777    0.0732    1.0326 C.3     1  LIG1        0.0184
     12 C           0.4019   -0.9492    0.9431 C.ar    1  LIG1       -0.0320
     13 C          -0.9475   -1.1814    1.2066 C.ar    1  LIG1       -0.0353
     14 C           1.6513    0.7662   -0.4918 C.ar    1  LIG1        0.0025
     15 C          -3.0381   -0.0448    0.1710 C.ar    1  LIG1       -0.0356
     16 C          -0.7874    2.4582    1.0929 C.2     1  LIG1        0.0466
     17 C           1.3415   -1.9729    1.0495 C.ar    1  LIG1       -0.0159
     18 C          -1.3672   -2.4287    1.6525 C.ar    1  LIG1       -0.0542
     19 C           1.5934    0.1563   -1.7582 C.ar    1  LIG1        0.1278
     20 C           0.9085   -3.2538    1.3945 C.ar    1  LIG1        0.1208
     21 C          -3.3463   -1.1731   -0.6078 C.ar    1  LIG1       -0.0124
     22 C          -0.4364   -3.4677    1.7280 C.ar    1  LIG1       -0.0196
     23 C          -3.9425    1.0490    0.1568 C.ar    1  LIG1       -0.0543
     24 C           2.6951    1.6766   -0.2414 C.ar    1  LIG1       -0.0510
     25 C          -4.5229   -1.1799   -1.3303 C.ar    1  LIG1        0.1665
     26 C          -5.1182    1.0255   -0.6016 C.ar    1  LIG1       -0.0159
     27 C           2.5705    0.4489   -2.7272 C.ar    1  LIG1        0.0221
     28 C           3.6653    1.9522   -1.2042 C.ar    1  LIG1       -0.0194
     29 C          -5.3837   -0.1096   -1.3305 C.ar    1  LIG1        0.1662
     30 C           3.6098    1.3409   -2.4518 C.ar    1  LIG1        0.1236
     31 C           2.9340   -4.2959    0.7380 C.3     1  LIG1        0.0893
     32 C          -6.2026   -1.6514   -2.5992 C.3     1  LIG1        0.2332
     33 C           0.7755   -1.7460   -2.9275 C.3     1  LIG1        0.1126
     34 C           3.4507   -5.7141    0.5016 C.3     1  LIG1       -0.0215
     35 C          -0.4087   -2.7031   -2.8612 C.3     1  LIG1        0.0783
     36 C           4.4937    1.2517   -4.6553 C.3     1  LIG1        0.0788
     37 C           3.7482   -6.4560    1.7961 C.3     1  LIG1       -0.0622
     38 H          -1.7040   -1.2651   -2.8951 H       1  LIG1        0.2095
     39 H          -0.9642    1.2312   -0.6491 H       1  LIG1        0.0379
     40 H           1.0827    0.9168    1.5714 H       1  LIG1        0.0405
     41 H          -2.0960    0.3522    2.0452 H       1  LIG1        0.0404
     42 H           2.3841   -1.7470    0.8583 H       1  LIG1        0.0657
     43 H          -2.4058   -2.6005    1.9190 H       1  LIG1        0.0622
     44 H          -2.6936   -2.0354   -0.6601 H       1  LIG1        0.0658
     45 H          -0.7619   -4.4565    2.0396 H       1  LIG1        0.0654
     46 H          -3.7164    1.9377    0.7472 H       1  LIG1        0.0622
     47 H           2.7298    2.2094    0.7080 H       1  LIG1        0.0623
     48 H          -5.7922    1.8733   -0.6079 H       1  LIG1        0.0655
     49 H           2.4998   -0.0026   -3.7059 H       1  LIG1        0.0691
     50 H           4.4472    2.6731   -0.9825 H       1  LIG1        0.0654
     51 H           3.6654   -3.7203    1.3166 H       1  LIG1        0.0696
     52 H           2.7883   -3.8252   -0.2429 H       1  LIG1        0.0696
     53 H          -7.0272   -2.3084   -2.3008 H       1  LIG1        0.1166
     54 H          -6.1586   -1.6217   -3.6933 H       1  LIG1        0.1166
     55 H           1.6921   -2.2807   -2.6560 H       1  LIG1        0.0720
     56 H           0.8444   -1.3473   -3.9446 H       1  LIG1        0.0720
     57 H           4.3598   -5.6714   -0.1093 H       1  LIG1        0.0295
     58 H           2.7003   -6.2848   -0.0596 H       1  LIG1        0.0295
     59 H          -0.2043   -3.6038   -3.4484 H       1  LIG1        0.0591
     60 H          -0.6355   -2.9941   -1.8305 H       1  LIG1        0.0591
     61 H           5.3180    1.6889   -5.2271 H       1  LIG1        0.0660
     62 H           3.5574    1.5956   -5.1071 H       1  LIG1        0.0660
     63 H           4.5876    0.1628   -4.7175 H       1  LIG1        0.0660
     64 H           4.4968   -5.9226    2.3890 H       1  LIG1        0.0231
     65 H           4.1378   -7.4544    1.5751 H       1  LIG1        0.0231
     66 H           2.8462   -6.5749    2.4034 H       1  LIG1        0.0231
@<TRIPOS>BOND
     1     1    16   ar
     2     2    16   ar
     3     3    20    1
     4     3    31    1
     5     4    19    1
     6     4    33    1
     7     5    25    1
     8     5    32    1
     9     6    29    1
    10     6    32    1
    11     7    30    1
    12     7    36    1
    13     8    35    1
    14     9    10    1
    15     9    11    1
    16     9    16    1
    17    10    12    1
    18    10    14    1
    19    11    13    1
    20    11    15    1
    21    12    13   ar
    22    12    17   ar
    23    13    18   ar
    24    14    19   ar
    25    14    24   ar
    26    15    21   ar
    27    15    23   ar
    28    17    20   ar
    29    18    22   ar
    30    19    27   ar
    31    20    22   ar
    32    21    25   ar
    33    23    26   ar
    34    24    28   ar
    35    25    29   ar
    36    26    29   ar
    37    27    30   ar
    38    28    30   ar
    39    31    34    1
    40    33    35    1
    41    34    37    1
    42     8    38    1
    43     9    39    1
    44    10    40    1
    45    11    41    1
    46    17    42    1
    47    18    43    1
    48    21    44    1
    49    22    45    1
    50    23    46    1
    51    24    47    1
    52    26    48    1
    53    27    49    1
    54    28    50    1
    55    31    51    1
    56    31    52    1
    57    32    53    1
    58    32    54    1
    59    33    55    1
    60    33    56    1
    61    34    57    1
    62    34    58    1
    63    35    59    1
    64    35    60    1
    65    36    61    1
    66    36    62    1
    67    36    63    1
    68    37    64    1
    69    37    65    1
    70    37    66    1
@<TRIPOS>MOLECULE
178103
 66 70 0 0 0
SMALL
GASTEIGER

@<TRIPOS>ATOM
      1 O          -0.5871    3.4564    0.1842 O.co2   1  LIG1       -0.5495
      2 O          -1.0401    2.5115    2.2036 O.co2   1  LIG1       -0.5495
      3 O           1.7510   -4.2978    1.2754 O.3     1  LIG1       -0.4920
      4 O           0.6097   -0.5083   -2.0433 O.3     1  LIG1       -0.4893
      5 O          -6.6718    0.6513    0.2887 O.3     1  LIG1       -0.4526
      6 O          -6.6264   -0.3006   -1.9293 O.3     1  LIG1       -0.4526
      7 O           4.7810    1.5077   -3.2212 O.3     1  LIG1       -0.4950
      8 O          -0.3888   -3.0949   -2.6532 O.3     1  LIG1       -0.3917
      9 C          -0.7700    1.1099    0.3029 C.3     1  LIG1        0.0203
     10 C           0.6482    0.5749    0.6048 C.3     1  LIG1        0.0218
     11 C          -1.7742    0.1133    0.9308 C.3     1  LIG1        0.0184
     12 C           0.3998   -0.8984    0.8538 C.ar    1  LIG1       -0.0320
     13 C          -0.9591   -1.1601    1.0294 C.ar    1  LIG1       -0.0353
     14 C           1.6968    0.8624   -0.4686 C.ar    1  LIG1        0.0025
     15 C          -3.0557   -0.0232    0.1187 C.ar    1  LIG1       -0.0356
     16 C          -0.8155    2.4852    0.9607 C.2     1  LIG1        0.0466
     17 C           1.3467   -1.9138    0.9469 C.ar    1  LIG1       -0.0159
     18 C          -1.3949   -2.4489    1.3056 C.ar    1  LIG1       -0.0542
     19 C           1.6799    0.2899   -1.7565 C.ar    1  LIG1        0.1278
     20 C           0.9201   -3.2109    1.2263 C.ar    1  LIG1        0.1208
     21 C          -4.2722    0.4218    0.6640 C.ar    1  LIG1       -0.0124
     22 C          -0.4487   -3.4767    1.3852 C.ar    1  LIG1       -0.0196
     23 C          -3.0502   -0.5789   -1.1835 C.ar    1  LIG1       -0.0543
     24 C           2.7514    1.7293   -0.1297 C.ar    1  LIG1       -0.0510
     25 C          -5.4172    0.2852   -0.0922 C.ar    1  LIG1        0.1665
     26 C          -4.2242   -0.7007   -1.9314 C.ar    1  LIG1       -0.0159
     27 C           2.7514    0.5236   -2.6263 C.ar    1  LIG1        0.0221
     28 C           3.7954    1.9852   -1.0202 C.ar    1  LIG1       -0.0194
     29 C          -5.3937   -0.2597   -1.3555 C.ar    1  LIG1        0.1662
     30 C           3.8062    1.3705   -2.2676 C.ar    1  LIG1        0.1236
     31 C           3.0008   -4.0958    1.9417 C.3     1  LIG1        0.0893
     32 C          -7.4219    0.3047   -0.8902 C.3     1  LIG1        0.2332
     33 C           0.3279   -0.8973   -3.3863 C.3     1  LIG1        0.1126
     34 C           3.9880   -5.1250    1.3980 C.3     1  LIG1       -0.0215
     35 C           0.5362   -2.4031   -3.4928 C.3     1  LIG1        0.0783
     36 C           5.8285    2.4238   -2.9295 C.3     1  LIG1        0.0788
     37 C           5.3776   -4.9400    1.9802 C.3     1  LIG1       -0.0622
     38 H          -0.2880   -2.7032   -1.7608 H       1  LIG1        0.2095
     39 H          -0.9381    1.2248   -0.7755 H       1  LIG1        0.0379
     40 H           1.0162    0.9675    1.5643 H       1  LIG1        0.0405
     41 H          -2.0382    0.3822    1.9609 H       1  LIG1        0.0404
     42 H           2.3856   -1.6728    0.7594 H       1  LIG1        0.0657
     43 H          -2.4504   -2.6573    1.4506 H       1  LIG1        0.0622
     44 H          -4.3114    0.8727    1.6511 H       1  LIG1        0.0658
     45 H          -0.7783   -4.4933    1.5807 H       1  LIG1        0.0654
     46 H          -2.1116   -0.9175   -1.6156 H       1  LIG1        0.0622
     47 H           2.7535    2.2214    0.8422 H       1  LIG1        0.0623
     48 H          -4.2099   -1.1242   -2.9279 H       1  LIG1        0.0655
     49 H           2.8088    0.0493   -3.5986 H       1  LIG1        0.0691
     50 H           4.5769    2.6638   -0.6997 H       1  LIG1        0.0654
     51 H           2.8482   -4.2489    3.0165 H       1  LIG1        0.0696
     52 H           3.4219   -3.0978    1.7961 H       1  LIG1        0.0696
     53 H          -7.8881    1.2128   -1.2900 H       1  LIG1        0.1166
     54 H          -8.2146   -0.3974   -0.6064 H       1  LIG1        0.1166
     55 H           0.8961   -0.3552   -4.1455 H       1  LIG1        0.0720
     56 H          -0.7281   -0.6641   -3.5620 H       1  LIG1        0.0720
     57 H           4.0337   -5.0448    0.3048 H       1  LIG1        0.0295
     58 H           3.6223   -6.1364    1.6122 H       1  LIG1        0.0295
     59 H           0.3738   -2.7423   -4.5196 H       1  LIG1        0.0591
     60 H           1.5452   -2.6877   -3.1788 H       1  LIG1        0.0591
     61 H           6.4971    2.4529   -3.7954 H       1  LIG1        0.0660
     62 H           6.4160    2.0882   -2.0683 H       1  LIG1        0.0660
     63 H           5.4408    3.4362   -2.7754 H       1  LIG1        0.0660
     64 H           5.7739   -3.9482    1.7392 H       1  LIG1        0.0231
     65 H           6.0641   -5.6861    1.5686 H       1  LIG1        0.0231
     66 H           5.3662   -5.0499    3.0688 H       1  LIG1        0.0231
@<TRIPOS>BOND
     1     1    16   ar
     2     2    16   ar
     3     3    20    1
     4     3    31    1
     5     4    19    1
     6     4    33    1
     7     5    25    1
     8     5    32    1
     9     6    29    1
    10     6    32    1
    11     7    30    1
    12     7    36    1
    13     8    35    1
    14     9    10    1
    15     9    11    1
    16     9    16    1
    17    10    12    1
    18    10    14    1
    19    11    13    1
    20    11    15    1
    21    12    13   ar
    22    12    17   ar
    23    13    18   ar
    24    14    19   ar
    25    14    24   ar
    26    15    21   ar
    27    15    23   ar
    28    17    20   ar
    29    18    22   ar
    30    19    27   ar
    31    20    22   ar
    32    21    25   ar
    33    23    26   ar
    34    24    28   ar
    35    25    29   ar
    36    26    29   ar
    37    27    30   ar
    38    28    30   ar
    39    31    34    1
    40    33    35    1
    41    34    37    1
    42     8    38    1
    43     9    39    1
    44    10    40    1
    45    11    41    1
    46    17    42    1
    47    18    43    1
    48    21    44    1
    49    22    45    1
    50    23    46    1
    51    24    47    1
    52    26    48    1
    53    27    49    1
    54    28    50    1
    55    31    51    1
    56    31    52    1
    57    32    53    1
    58    32    54    1
    59    33    55    1
    60    33    56    1
    61    34    57    1
    62    34    58    1
    63    35    59    1
    64    35    60    1
    65    36    61    1
    66    36    62    1
    67    36    63    1
    68    37    64    1
    69    37    65    1
    70    37    66    1
@<TRIPOS>MOLECULE
178103
 66 70 0 0 0
SMALL
GASTEIGER

@<TRIPOS>ATOM
      1 O          -0.1359    3.2974    0.4348 O.co2   1  LIG1       -0.5495
      2 O          -1.4473    2.5175    2.1147 O.co2   1  LIG1       -0.5495
      3 O           1.7120   -4.4066    1.5036 O.3     1  LIG1       -0.4920
      4 O           0.7782   -0.9587   -1.9106 O.3     1  LIG1       -0.4893
      5 O          -5.1080   -2.2210   -2.0143 O.3     1  LIG1       -0.4526
      6 O          -6.4891   -0.2456   -2.1320 O.3     1  LIG1       -0.4526
      7 O           4.5044    1.8776   -3.3608 O.3     1  LIG1       -0.4950
      8 O          -1.1885   -2.8120   -2.7664 O.3     1  LIG1       -0.3917
      9 C          -0.7569    1.0148    0.3913 C.3     1  LIG1        0.0203
     10 C           0.6647    0.4563    0.6356 C.3     1  LIG1        0.0218
     11 C          -1.7781    0.0206    1.0133 C.3     1  LIG1        0.0184
     12 C           0.4042   -0.9991    0.9504 C.ar    1  LIG1       -0.0320
     13 C          -0.9510   -1.2350    1.1893 C.ar    1  LIG1       -0.0353
     14 C           1.6573    0.7310   -0.4960 C.ar    1  LIG1        0.0025
     15 C          -3.0464   -0.0735    0.1587 C.ar    1  LIG1       -0.0356
     16 C          -0.7839    2.3989    1.0449 C.2     1  LIG1        0.0466
     17 C           1.3469   -2.0155    1.0868 C.ar    1  LIG1       -0.0159
     18 C          -1.3707   -2.4809    1.6400 C.ar    1  LIG1       -0.0542
     19 C           1.6951    0.0443   -1.7254 C.ar    1  LIG1        0.1278
     20 C           0.9122   -3.2968    1.4279 C.ar    1  LIG1        0.1208
     21 C          -3.4297   -1.2211   -0.5556 C.ar    1  LIG1       -0.0124
     22 C          -0.4373   -3.5157    1.7370 C.ar    1  LIG1       -0.0196
     23 C          -3.8827    1.0720    0.0854 C.ar    1  LIG1       -0.0543
     24 C           2.5780    1.7778   -0.2965 C.ar    1  LIG1       -0.0510
     25 C          -4.5995   -1.1872   -1.2891 C.ar    1  LIG1        0.1665
     26 C          -5.0560    1.0853   -0.6775 C.ar    1  LIG1       -0.0159
     27 C           2.6305    0.4141   -2.7102 C.ar    1  LIG1        0.0221
     28 C           3.5155    2.1211   -1.2709 C.ar    1  LIG1       -0.0194
     29 C          -5.3890   -0.0646   -1.3526 C.ar    1  LIG1        0.1662
     30 C           3.5460    1.4441   -2.4842 C.ar    1  LIG1        0.1236
     31 C           2.9348   -4.3380    0.7686 C.3     1  LIG1        0.0893
     32 C          -6.2959   -1.6108   -2.5533 C.3     1  LIG1        0.2332
     33 C           1.0502   -1.9135   -2.9392 C.3     1  LIG1        0.1126
     34 C           3.4370   -5.7572    0.5096 C.3     1  LIG1       -0.0215
     35 C           0.1919   -3.1469   -2.6787 C.3     1  LIG1        0.0783
     36 C           4.4700    1.3296   -4.6712 C.3     1  LIG1        0.0788
     37 C           3.7385   -6.5182    1.7916 C.3     1  LIG1       -0.0622
     38 H          -1.2984   -2.0265   -2.1919 H       1  LIG1        0.2095
     39 H          -0.9456    1.1386   -0.6853 H       1  LIG1        0.0379
     40 H           1.0812    0.8737    1.5651 H       1  LIG1        0.0405
     41 H          -2.0936    0.3050    2.0246 H       1  LIG1        0.0404
     42 H           2.3916   -1.7863    0.9153 H       1  LIG1        0.0657
     43 H          -2.4109   -2.6551    1.8974 H       1  LIG1        0.0622
     44 H          -2.8437   -2.1311   -0.5508 H       1  LIG1        0.0658
     45 H          -0.7640   -4.5040    2.0469 H       1  LIG1        0.0654
     46 H          -3.6047    1.9744    0.6344 H       1  LIG1        0.0622
     47 H           2.5343    2.3682    0.6189 H       1  LIG1        0.0623
     48 H          -5.6745    1.9727   -0.7304 H       1  LIG1        0.0655
     49 H           2.6280   -0.0940   -3.6644 H       1  LIG1        0.0691
     50 H           4.1973    2.9465   -1.0866 H       1  LIG1        0.0654
     51 H           3.6772   -3.7741    1.3449 H       1  LIG1        0.0696
     52 H           2.7836   -3.8560   -0.2058 H       1  LIG1        0.0696
     53 H          -7.1649   -2.1991   -2.2373 H       1  LIG1        0.1166
     54 H          -6.2370   -1.6358   -3.6476 H       1  LIG1        0.1166
     55 H           2.1040   -2.2171   -2.9339 H       1  LIG1        0.0720
     56 H           0.7782   -1.4741   -3.9059 H       1  LIG1        0.0720
     57 H           4.3411   -5.7142   -0.1075 H       1  LIG1        0.0295
     58 H           2.6775   -6.3140   -0.0524 H       1  LIG1        0.0295
     59 H           0.3996   -3.9215   -3.4221 H       1  LIG1        0.0591
     60 H           0.3792   -3.5550   -1.6819 H       1  LIG1        0.0591
     61 H           5.2465    1.8255   -5.2615 H       1  LIG1        0.0660
     62 H           3.5085    1.5219   -5.1588 H       1  LIG1        0.0660
     63 H           4.6991    0.2589   -4.6550 H       1  LIG1        0.0660
     64 H           4.4938   -5.9970    2.3878 H       1  LIG1        0.0231
     65 H           4.1207   -7.5160    1.5549 H       1  LIG1        0.0231
     66 H           2.8390   -6.6402    2.4038 H       1  LIG1        0.0231
@<TRIPOS>BOND
     1     1    16   ar
     2     2    16   ar
     3     3    20    1
     4     3    31    1
     5     4    19    1
     6     4    33    1
     7     5    25    1
     8     5    32    1
     9     6    29    1
    10     6    32    1
    11     7    30    1
    12     7    36    1
    13     8    35    1
    14     9    10    1
    15     9    11    1
    16     9    16    1
    17    10    12    1
    18    10    14    1
    19    11    13    1
    20    11    15    1
    21    12    13   ar
    22    12    17   ar
    23    13    18   ar
    24    14    19   ar
    25    14    24   ar
    26    15    21   ar
    27    15    23   ar
    28    17    20   ar
    29    18    22   ar
    30    19    27   ar
    31    20    22   ar
    32    21    25   ar
    33    23    26   ar
    34    24    28   ar
    35    25    29   ar
    36    26    29   ar
    37    27    30   ar
    38    28    30   ar
    39    31    34    1
    40    33    35    1
    41    34    37    1
    42     8    38    1
    43     9    39    1
    44    10    40    1
    45    11    41    1
    46    17    42    1
    47    18    43    1
    48    21    44    1
    49    22    45    1
    50    23    46    1
    51    24    47    1
    52    26    48    1
    53    27    49    1
    54    28    50    1
    55    31    51    1
    56    31    52    1
    57    32    53    1
    58    32    54    1
    59    33    55    1
    60    33    56    1
    61    34    57    1
    62    34    58    1
    63    35    59    1
    64    35    60    1
    65    36    61    1
    66    36    62    1
    67    36    63    1
    68    37    64    1
    69    37    65    1
    70    37    66    1
@<TRIPOS>MOLECULE
178103
 66 70 0 0 0
SMALL
GASTEIGER

@<TRIPOS>ATOM
      1 O          -0.0846    3.2991    0.4954 O.co2   1  LIG1       -0.5495
      2 O          -1.5142    2.5419    2.0826 O.co2   1  LIG1       -0.5495
      3 O           1.7404   -4.3750    1.5295 O.3     1  LIG1       -0.4920
      4 O           0.8110   -0.9869   -1.8861 O.3     1  LIG1       -0.4893
      5 O          -5.1128   -2.2471   -1.9853 O.3     1  LIG1       -0.4526
      6 O          -6.4774   -0.2639   -2.1512 O.3     1  LIG1       -0.4526
      7 O           4.5168    1.8661   -3.3612 O.3     1  LIG1       -0.4950
      8 O          -1.1727   -2.8405   -2.6597 O.3     1  LIG1       -0.3917
      9 C          -0.7548    1.0294    0.3974 C.3     1  LIG1        0.0203
     10 C           0.6686    0.4713    0.6387 C.3     1  LIG1        0.0218
     11 C          -1.7774    0.0298    1.0113 C.3     1  LIG1        0.0184
     12 C           0.4079   -0.9807    0.9623 C.ar    1  LIG1       -0.0320
     13 C          -0.9455   -1.2226    1.1960 C.ar    1  LIG1       -0.0353
     14 C           1.6622    0.7370   -0.4962 C.ar    1  LIG1        0.0025
     15 C          -3.0406   -0.0705    0.1491 C.ar    1  LIG1       -0.0356
     16 C          -0.7872    2.4127    1.0586 C.2     1  LIG1        0.0466
     17 C           1.3557   -1.9915    1.1088 C.ar    1  LIG1       -0.0159
     18 C          -1.3610   -2.4691    1.6506 C.ar    1  LIG1       -0.0542
     19 C           1.7109    0.0341   -1.7167 C.ar    1  LIG1        0.1278
     20 C           0.9269   -3.2736    1.4504 C.ar    1  LIG1        0.1208
     21 C          -3.4323   -1.2296   -0.5414 C.ar    1  LIG1       -0.0124
     22 C          -0.4209   -3.4997    1.7556 C.ar    1  LIG1       -0.0196
     23 C          -3.8690    1.0793    0.0488 C.ar    1  LIG1       -0.0543
     24 C           2.5768    1.7912   -0.3054 C.ar    1  LIG1       -0.0510
     25 C          -4.5984   -1.2017   -1.2813 C.ar    1  LIG1        0.1665
     26 C          -5.0392    1.0858   -0.7196 C.ar    1  LIG1       -0.0159
     27 C           2.6487    0.3998   -2.7014 C.ar    1  LIG1        0.0221
     28 C           3.5170    2.1288   -1.2788 C.ar    1  LIG1       -0.0194
     29 C          -5.3784   -0.0751   -1.3721 C.ar    1  LIG1        0.1662
     30 C           3.5563    1.4385   -2.4839 C.ar    1  LIG1        0.1236
     31 C           2.9411   -4.2962    0.7573 C.3     1  LIG1        0.0893
     32 C          -6.2948   -1.6401   -2.5396 C.3     1  LIG1        0.2332
     33 C           1.0357   -1.9003   -2.9628 C.3     1  LIG1        0.1126
     34 C           3.4530   -5.7151    0.5326 C.3     1  LIG1       -0.0215
     35 C           0.2136   -3.1568   -2.6974 C.3     1  LIG1        0.0783
     36 C           4.4770    1.3191   -4.6717 C.3     1  LIG1        0.0788
     37 C           4.7240   -5.7261   -0.2983 C.3     1  LIG1       -0.0622
     38 H          -1.2426   -2.0789   -2.0475 H       1  LIG1        0.2095
     39 H          -0.9402    1.1620   -0.6779 H       1  LIG1        0.0379
     40 H           1.0885    0.8929    1.5649 H       1  LIG1        0.0405
     41 H          -2.1008    0.3133    2.0205 H       1  LIG1        0.0404
     42 H           2.3998   -1.7558    0.9407 H       1  LIG1        0.0657
     43 H          -2.4002   -2.6490    1.9047 H       1  LIG1        0.0622
     44 H          -2.8572   -2.1458   -0.5139 H       1  LIG1        0.0658
     45 H          -0.7442   -4.4888    2.0673 H       1  LIG1        0.0654
     46 H          -3.5892    1.9898    0.5819 H       1  LIG1        0.0622
     47 H           2.5266    2.3914    0.6035 H       1  LIG1        0.0623
     48 H          -5.6510    1.9766   -0.7916 H       1  LIG1        0.0655
     49 H           2.6595   -0.1210   -3.6484 H       1  LIG1        0.0691
     50 H           4.1940    2.9592   -1.1001 H       1  LIG1        0.0654
     51 H           3.6878   -3.7117    1.3075 H       1  LIG1        0.0696
     52 H           2.7541   -3.8329   -0.2203 H       1  LIG1        0.0696
     53 H          -7.1690   -2.2139   -2.2101 H       1  LIG1        0.1166
     54 H          -6.2360   -1.6921   -3.6330 H       1  LIG1        0.1166
     55 H           2.0902   -2.1909   -3.0303 H       1  LIG1        0.0720
     56 H           0.7019   -1.4294   -3.8945 H       1  LIG1        0.0720
     57 H           2.6779   -6.3077    0.0315 H       1  LIG1        0.0295
     58 H           3.6307   -6.2030    1.4980 H       1  LIG1        0.0295
     59 H           0.3720   -3.8931   -3.4907 H       1  LIG1        0.0591
     60 H           0.4836   -3.6083   -1.7383 H       1  LIG1        0.0591
     61 H           5.2472    1.8196   -5.2666 H       1  LIG1        0.0660
     62 H           3.5115    1.5065   -5.1534 H       1  LIG1        0.0660
     63 H           4.7119    0.2497   -4.6579 H       1  LIG1        0.0660
     64 H           4.5576   -5.2617   -1.2759 H       1  LIG1        0.0231
     65 H           5.0611   -6.7538   -0.4643 H       1  LIG1        0.0231
     66 H           5.5272   -5.1811    0.2077 H       1  LIG1        0.0231
@<TRIPOS>BOND
     1     1    16   ar
     2     2    16   ar
     3     3    20    1
     4     3    31    1
     5     4    19    1
     6     4    33    1
     7     5    25    1
     8     5    32    1
     9     6    29    1
    10     6    32    1
    11     7    30    1
    12     7    36    1
    13     8    35    1
    14     9    10    1
    15     9    11    1
    16     9    16    1
    17    10    12    1
    18    10    14    1
    19    11    13    1
    20    11    15    1
    21    12    13   ar
    22    12    17   ar
    23    13    18   ar
    24    14    19   ar
    25    14    24   ar
    26    15    21   ar
    27    15    23   ar
    28    17    20   ar
    29    18    22   ar
    30    19    27   ar
    31    20    22   ar
    32    21    25   ar
    33    23    26   ar
    34    24    28   ar
    35    25    29   ar
    36    26    29   ar
    37    27    30   ar
    38    28    30   ar
    39    31    34    1
    40    33    35    1
    41    34    37    1
    42     8    38    1
    43     9    39    1
    44    10    40    1
    45    11    41    1
    46    17    42    1
    47    18    43    1
    48    21    44    1
    49    22    45    1
    50    23    46    1
    51    24    47    1
    52    26    48    1
    53    27    49    1
    54    28    50    1
    55    31    51    1
    56    31    52    1
    57    32    53    1
    58    32    54    1
    59    33    55    1
    60    33    56    1
    61    34    57    1
    62    34    58    1
    63    35    59    1
    64    35    60    1
    65    36    61    1
    66    36    62    1
    67    36    63    1
    68    37    64    1
    69    37    65    1
    70    37    66    1
@<TRIPOS>MOLECULE
178103
 66 70 0 0 0
SMALL
GASTEIGER

@<TRIPOS>ATOM
      1 O          -0.6580    3.4610    0.1026 O.co2   1  LIG1       -0.5495
      2 O          -1.0370    2.5392    2.1476 O.co2   1  LIG1       -0.5495
      3 O           1.6186   -4.2850    1.6296 O.3     1  LIG1       -0.4920
      4 O           0.6246   -0.5643   -2.0154 O.3     1  LIG1       -0.4893
      5 O          -6.7087    0.7063    0.2488 O.3     1  LIG1       -0.4526
      6 O          -6.6786   -0.2679   -1.9594 O.3     1  LIG1       -0.4526
      7 O           4.7911    1.4628   -3.1801 O.3     1  LIG1       -0.4950
      8 O          -0.3132   -3.1459   -2.6666 O.3     1  LIG1       -0.3917
      9 C          -0.7868    1.1139    0.2621 C.3     1  LIG1        0.0203
     10 C           0.6172    0.5687    0.6142 C.3     1  LIG1        0.0218
     11 C          -1.8166    0.1407    0.8794 C.3     1  LIG1        0.0184
     12 C           0.3459   -0.8975    0.8843 C.ar    1  LIG1       -0.0320
     13 C          -1.0231   -1.1433    1.0006 C.ar    1  LIG1       -0.0353
     14 C           1.6883    0.8301   -0.4434 C.ar    1  LIG1        0.0025
     15 C          -3.0964    0.0165    0.0656 C.ar    1  LIG1       -0.0356
     16 C          -0.8447    2.4978    0.8996 C.2     1  LIG1        0.0466
     17 C           1.2779   -1.9128    1.0782 C.ar    1  LIG1       -0.0159
     18 C          -1.4866   -2.4201    1.2823 C.ar    1  LIG1       -0.0542
     19 C           1.6879    0.2416   -1.7236 C.ar    1  LIG1        0.1278
     20 C           0.8237   -3.1975    1.3791 C.ar    1  LIG1        0.1208
     21 C          -4.3079    0.4742    0.6122 C.ar    1  LIG1       -0.0124
     22 C          -0.5559   -3.4490    1.4520 C.ar    1  LIG1       -0.0196
     23 C          -3.0978   -0.5513   -1.2308 C.ar    1  LIG1       -0.0543
     24 C           2.7360    1.7061   -0.1062 C.ar    1  LIG1       -0.0510
     25 C          -5.4576    0.3347   -0.1370 C.ar    1  LIG1        0.1665
     26 C          -4.2767   -0.6736   -1.9719 C.ar    1  LIG1       -0.0159
     27 C           2.7665    0.4688   -2.5871 C.ar    1  LIG1        0.0221
     28 C           3.7861    1.9574   -0.9915 C.ar    1  LIG1       -0.0194
     29 C          -5.4416   -0.2229   -1.3941 C.ar    1  LIG1        0.1662
     30 C           3.8114    1.3287   -2.2317 C.ar    1  LIG1        0.1236
     31 C           2.9668   -4.0390    2.0367 C.3     1  LIG1        0.0893
     32 C          -7.4681    0.3427   -0.9190 C.3     1  LIG1        0.2332
     33 C           0.3368   -0.9176   -3.3671 C.3     1  LIG1        0.1126
     34 C           3.0332   -3.5402    3.4806 C.3     1  LIG1       -0.0215
     35 C           0.5727   -2.4155   -3.5171 C.3     1  LIG1        0.0783
     36 C           5.8113    2.4148   -2.9071 C.3     1  LIG1        0.0788
     37 C           4.4635   -3.3019    3.9306 C.3     1  LIG1       -0.0622
     38 H          -0.2243   -2.7435   -1.7765 H       1  LIG1        0.2095
     39 H          -0.9255    1.2106   -0.8222 H       1  LIG1        0.0379
     40 H           0.9676    0.9761    1.5737 H       1  LIG1        0.0405
     41 H          -2.0836    0.4225    1.9058 H       1  LIG1        0.0404
     42 H           2.3294   -1.6689    0.9951 H       1  LIG1        0.0657
     43 H          -2.5495   -2.6149    1.3845 H       1  LIG1        0.0622
     44 H          -4.3409    0.9319    1.5961 H       1  LIG1        0.0658
     45 H          -0.9051   -4.4525    1.6788 H       1  LIG1        0.0654
     46 H          -2.1636   -0.9035   -1.6601 H       1  LIG1        0.0622
     47 H           2.7257    2.2126    0.8584 H       1  LIG1        0.0623
     48 H          -4.2699   -1.1082   -2.9636 H       1  LIG1        0.0655
     49 H           2.8328   -0.0188   -3.5523 H       1  LIG1        0.0691
     50 H           4.5606    2.6455   -0.6735 H       1  LIG1        0.0654
     51 H           3.4942   -3.3851    1.3337 H       1  LIG1        0.0696
     52 H           3.4813   -5.0059    1.9786 H       1  LIG1        0.0696
     53 H          -7.9439    1.2437   -1.3232 H       1  LIG1        0.1166
     54 H          -8.2528   -0.3617   -0.6199 H       1  LIG1        0.1166
     55 H           0.8869   -0.3415   -4.1148 H       1  LIG1        0.0720
     56 H          -0.7246   -0.7011   -3.5264 H       1  LIG1        0.0720
     57 H           2.5518   -4.2718    4.1402 H       1  LIG1        0.0295
     58 H           2.4624   -2.6127    3.5968 H       1  LIG1        0.0295
     59 H           0.3885   -2.7348   -4.5467 H       1  LIG1        0.0591
     60 H           1.5961   -2.6855   -3.2378 H       1  LIG1        0.0591
     61 H           6.4805    2.4446   -3.7727 H       1  LIG1        0.0660
     62 H           6.4066    2.1150   -2.0381 H       1  LIG1        0.0660
     63 H           5.3946    3.4191   -2.7754 H       1  LIG1        0.0660
     64 H           5.0527   -4.2228    3.8751 H       1  LIG1        0.0231
     65 H           4.4804   -2.9493    4.9671 H       1  LIG1        0.0231
     66 H           4.9484   -2.5434    3.3072 H       1  LIG1        0.0231
@<TRIPOS>BOND
     1     1    16   ar
     2     2    16   ar
     3     3    20    1
     4     3    31    1
     5     4    19    1
     6     4    33    1
     7     5    25    1
     8     5    32    1
     9     6    29    1
    10     6    32    1
    11     7    30    1
    12     7    36    1
    13     8    35    1
    14     9    10    1
    15     9    11    1
    16     9    16    1
    17    10    12    1
    18    10    14    1
    19    11    13    1
    20    11    15    1
    21    12    13   ar
    22    12    17   ar
    23    13    18   ar
    24    14    19   ar
    25    14    24   ar
    26    15    21   ar
    27    15    23   ar
    28    17    20   ar
    29    18    22   ar
    30    19    27   ar
    31    20    22   ar
    32    21    25   ar
    33    23    26   ar
    34    24    28   ar
    35    25    29   ar
    36    26    29   ar
    37    27    30   ar
    38    28    30   ar
    39    31    34    1
    40    33    35    1
    41    34    37    1
    42     8    38    1
    43     9    39    1
    44    10    40    1
    45    11    41    1
    46    17    42    1
    47    18    43    1
    48    21    44    1
    49    22    45    1
    50    23    46    1
    51    24    47    1
    52    26    48    1
    53    27    49    1
    54    28    50    1
    55    31    51    1
    56    31    52    1
    57    32    53    1
    58    32    54    1
    59    33    55    1
    60    33    56    1
    61    34    57    1
    62    34    58    1
    63    35    59    1
    64    35    60    1
    65    36    61    1
    66    36    62    1
    67    36    63    1
    68    37    64    1
    69    37    65    1
    70    37    66    1
@<TRIPOS>MOLECULE
178103
 66 70 0 0 0
SMALL
GASTEIGER

@<TRIPOS>ATOM
      1 O          -0.6309    2.5006    2.1416 O.co2   1  LIG1       -0.5495
      2 O          -1.1802    3.2811    0.0781 O.co2   1  LIG1       -0.5495
      3 O           1.8271   -4.3518    1.6386 O.3     1  LIG1       -0.4920
      4 O           1.1345   -1.0990   -1.7825 O.3     1  LIG1       -0.4893
      5 O          -4.8138   -2.1846   -2.2435 O.3     1  LIG1       -0.4526
      6 O          -6.4365   -0.4075   -2.0502 O.3     1  LIG1       -0.4526
      7 O           4.4100    1.9025   -3.5102 O.3     1  LIG1       -0.4950
      8 O           1.2413   -4.4397   -3.2581 O.3     1  LIG1       -0.3917
      9 C          -0.6709    0.9896    0.3063 C.3     1  LIG1        0.0203
     10 C           0.7464    0.4831    0.6421 C.3     1  LIG1        0.0218
     11 C          -1.6821    0.0398    0.9872 C.3     1  LIG1        0.0184
     12 C           0.5035   -0.9645    0.9990 C.ar    1  LIG1       -0.0320
     13 C          -0.8572   -1.2131    1.2002 C.ar    1  LIG1       -0.0353
     14 C           1.7401    0.7883   -0.4770 C.ar    1  LIG1        0.0025
     15 C          -2.9586   -0.0955    0.1589 C.ar    1  LIG1       -0.0356
     16 C          -0.8387    2.3850    0.8993 C.2     1  LIG1        0.0466
     17 C           1.4554   -1.9606    1.1994 C.ar    1  LIG1       -0.0159
     18 C          -1.2824   -2.4630    1.6298 C.ar    1  LIG1       -0.0542
     19 C           1.9174    0.0155   -1.6402 C.ar    1  LIG1        0.1278
     20 C           1.0260   -3.2455    1.5333 C.ar    1  LIG1        0.1208
     21 C          -3.2088   -1.1726   -0.7093 C.ar    1  LIG1       -0.0124
     22 C          -0.3370   -3.4830    1.7716 C.ar    1  LIG1       -0.0196
     23 C          -3.9181    0.9466    0.2430 C.ar    1  LIG1       -0.0543
     24 C           2.4840    1.9783   -0.3480 C.ar    1  LIG1       -0.0510
     25 C          -4.4052   -1.1980   -1.3981 C.ar    1  LIG1        0.1665
     26 C          -5.1117    0.9067   -0.4849 C.ar    1  LIG1       -0.0159
     27 C           2.8319    0.4326   -2.6189 C.ar    1  LIG1        0.0221
     28 C           3.3911    2.3850   -1.3285 C.ar    1  LIG1       -0.0194
     29 C          -5.3315   -0.1879   -1.2875 C.ar    1  LIG1        0.1662
     30 C           3.5641    1.6140   -2.4719 C.ar    1  LIG1        0.1236
     31 C           3.1716   -4.2160    1.1774 C.3     1  LIG1        0.0893
     32 C          -6.1043   -1.6795   -2.6393 C.3     1  LIG1        0.2332
     33 C           1.5937   -2.1122   -2.6729 C.3     1  LIG1        0.1126
     34 C           3.7444   -5.6017    0.8833 C.3     1  LIG1       -0.0215
     35 C           0.8303   -3.3977   -2.3760 C.3     1  LIG1        0.0783
     36 C           4.9035    3.2355   -3.5604 C.3     1  LIG1        0.0788
     37 C           3.6975   -6.5363    2.0818 C.3     1  LIG1       -0.0622
     38 H           0.7327   -5.2263   -2.9957 H       1  LIG1        0.2095
     39 H          -0.8304    1.0194   -0.7811 H       1  LIG1        0.0379
     40 H           1.1374    0.9339    1.5652 H       1  LIG1        0.0405
     41 H          -1.9731    0.3855    1.9888 H       1  LIG1        0.0404
     42 H           2.5003   -1.7110    1.0615 H       1  LIG1        0.0657
     43 H          -2.3316   -2.6517    1.8333 H       1  LIG1        0.0622
     44 H          -2.4903   -1.9713   -0.8504 H       1  LIG1        0.0658
     45 H          -0.6636   -4.4765    2.0656 H       1  LIG1        0.0654
     46 H          -3.7116    1.8159    0.8698 H       1  LIG1        0.0622
     47 H           2.3285    2.6174    0.5224 H       1  LIG1        0.0623
     48 H          -5.8274    1.7174   -0.4223 H       1  LIG1        0.0655
     49 H           2.9662   -0.1303   -3.5363 H       1  LIG1        0.0691
     50 H           3.9259    3.3141   -1.1685 H       1  LIG1        0.0654
     51 H           3.7680   -3.7145    1.9484 H       1  LIG1        0.0696
     52 H           3.2214   -3.6422    0.2442 H       1  LIG1        0.0696
     53 H          -6.8694   -2.4084   -2.3465 H       1  LIG1        0.1166
     54 H          -6.1209   -1.5766   -3.7304 H       1  LIG1        0.1166
     55 H           2.6673   -2.3033   -2.5466 H       1  LIG1        0.0720
     56 H           1.4102   -1.8139   -3.7119 H       1  LIG1        0.0720
     57 H           4.7801   -5.4979    0.5409 H       1  LIG1        0.0295
     58 H           3.1729   -6.0603    0.0674 H       1  LIG1        0.0295
     59 H           1.0166   -3.7229   -1.3490 H       1  LIG1        0.0591
     60 H          -0.2479   -3.2406   -2.4850 H       1  LIG1        0.0591
     61 H           5.4450    3.3547   -4.5039 H       1  LIG1        0.0660
     62 H           5.6109    3.4227   -2.7462 H       1  LIG1        0.0660
     63 H           4.0867    3.9655   -3.5518 H       1  LIG1        0.0660
     64 H           4.2374   -6.1118    2.9332 H       1  LIG1        0.0231
     65 H           4.1612   -7.4948    1.8272 H       1  LIG1        0.0231
     66 H           2.6664   -6.7366    2.3896 H       1  LIG1        0.0231
@<TRIPOS>BOND
     1     1    16   ar
     2     2    16   ar
     3     3    20    1
     4     3    31    1
     5     4    19    1
     6     4    33    1
     7     5    25    1
     8     5    32    1
     9     6    29    1
    10     6    32    1
    11     7    30    1
    12     7    36    1
    13     8    35    1
    14     9    10    1
    15     9    11    1
    16     9    16    1
    17    10    12    1
    18    10    14    1
    19    11    13    1
    20    11    15    1
    21    12    13   ar
    22    12    17   ar
    23    13    18   ar
    24    14    19   ar
    25    14    24   ar
    26    15    21   ar
    27    15    23   ar
    28    17    20   ar
    29    18    22   ar
    30    19    27   ar
    31    20    22   ar
    32    21    25   ar
    33    23    26   ar
    34    24    28   ar
    35    25    29   ar
    36    26    29   ar
    37    27    30   ar
    38    28    30   ar
    39    31    34    1
    40    33    35    1
    41    34    37    1
    42     8    38    1
    43     9    39    1
    44    10    40    1
    45    11    41    1
    46    17    42    1
    47    18    43    1
    48    21    44    1
    49    22    45    1
    50    23    46    1
    51    24    47    1
    52    26    48    1
    53    27    49    1
    54    28    50    1
    55    31    51    1
    56    31    52    1
    57    32    53    1
    58    32    54    1
    59    33    55    1
    60    33    56    1
    61    34    57    1
    62    34    58    1
    63    35    59    1
    64    35    60    1
    65    36    61    1
    66    36    62    1
    67    36    63    1
    68    37    64    1
    69    37    65    1
    70    37    66    1
@<TRIPOS>MOLECULE
178103
 66 70 0 0 0
SMALL
GASTEIGER

@<TRIPOS>ATOM
      1 O          -0.4559    3.3181    0.0464 O.co2   1  LIG1       -0.5495
      2 O          -1.1716    2.5170    2.0459 O.co2   1  LIG1       -0.5495
      3 O           1.8120   -4.3247    1.6257 O.3     1  LIG1       -0.4920
      4 O           0.9185   -0.9720   -1.9055 O.3     1  LIG1       -0.4893
      5 O          -4.9437   -2.2120   -2.2034 O.3     1  LIG1       -0.4526
      6 O          -6.4918   -0.3638   -2.1020 O.3     1  LIG1       -0.4526
      7 O           4.6979    1.5658   -3.3093 O.3     1  LIG1       -0.4950
      8 O          -0.8696   -2.8985   -3.0321 O.3     1  LIG1       -0.3917
      9 C          -0.7407    0.9852    0.2771 C.3     1  LIG1        0.0203
     10 C           0.6794    0.4843    0.6120 C.3     1  LIG1        0.0218
     11 C          -1.7450    0.0210    0.9558 C.3     1  LIG1        0.0184
     12 C           0.4451   -0.9688    0.9649 C.ar    1  LIG1       -0.0320
     13 C          -0.9126   -1.2255    1.1701 C.ar    1  LIG1       -0.0353
     14 C           1.7154    0.7527   -0.4761 C.ar    1  LIG1        0.0025
     15 C          -3.0208   -0.1056    0.1258 C.ar    1  LIG1       -0.0356
     16 C          -0.8015    2.4014    0.8446 C.2     1  LIG1        0.0466
     17 C           1.4046   -1.9612    1.1473 C.ar    1  LIG1       -0.0159
     18 C          -1.3253   -2.4779    1.6035 C.ar    1  LIG1       -0.0542
     19 C           1.8372    0.0192   -1.6697 C.ar    1  LIG1        0.1278
     20 C           0.9917   -3.2347    1.5340 C.ar    1  LIG1        0.1208
     21 C          -3.3134   -1.2090   -0.6929 C.ar    1  LIG1       -0.0124
     22 C          -0.3708   -3.4883    1.7560 C.ar    1  LIG1       -0.0196
     23 C          -3.9427    0.9737    0.1673 C.ar    1  LIG1       -0.0543
     24 C           2.6029    1.8248   -0.2636 C.ar    1  LIG1       -0.0510
     25 C          -4.5028   -1.2106   -1.3948 C.ar    1  LIG1        0.1665
     26 C          -5.1314    0.9537   -0.5688 C.ar    1  LIG1       -0.0159
     27 C           2.8469    0.3442   -2.5885 C.ar    1  LIG1        0.0221
     28 C           3.6120    2.1345   -1.1785 C.ar    1  LIG1       -0.0194
     29 C          -5.3864   -0.1594   -1.3349 C.ar    1  LIG1        0.1662
     30 C           3.7482    1.3824   -2.3393 C.ar    1  LIG1        0.1236
     31 C           3.1203   -4.1117    2.1565 C.3     1  LIG1        0.0893
     32 C          -6.2017   -1.6678   -2.6443 C.3     1  LIG1        0.2332
     33 C           1.3833   -2.0796   -2.6850 C.3     1  LIG1        0.1126
     34 C           4.0668   -5.1431    1.5442 C.3     1  LIG1       -0.0215
     35 C           0.4069   -3.2349   -2.4910 C.3     1  LIG1        0.0783
     36 C           5.6932    2.5456   -3.0419 C.3     1  LIG1        0.0788
     37 C           3.6653   -6.5754    1.8651 C.3     1  LIG1       -0.0622
     38 H          -1.1033   -2.0393   -2.6245 H       1  LIG1        0.2095
     39 H          -0.9028    1.0188   -0.8097 H       1  LIG1        0.0379
     40 H           1.0410    0.9409    1.5462 H       1  LIG1        0.0405
     41 H          -2.0437    0.3483    1.9599 H       1  LIG1        0.0404
     42 H           2.4394   -1.7231    0.9332 H       1  LIG1        0.0657
     43 H          -2.3737   -2.6771    1.8049 H       1  LIG1        0.0622
     44 H          -2.6387   -2.0520   -0.7862 H       1  LIG1        0.0658
     45 H          -0.6893   -4.4835    2.0520 H       1  LIG1        0.0654
     46 H          -3.7128    1.8484    0.7779 H       1  LIG1        0.0622
     47 H           2.4858    2.4519    0.6211 H       1  LIG1        0.0623
     48 H          -5.8204    1.7887   -0.5357 H       1  LIG1        0.0655
     49 H           2.9402   -0.1895   -3.5278 H       1  LIG1        0.0691
     50 H           4.2504    2.9821   -0.9564 H       1  LIG1        0.0654
     51 H           3.0750   -4.2362    3.2448 H       1  LIG1        0.0696
     52 H           3.5274   -3.1188    1.9502 H       1  LIG1        0.0696
     53 H          -7.0032   -2.3536   -2.3474 H       1  LIG1        0.1166
     54 H          -6.1902   -1.5981   -3.7385 H       1  LIG1        0.1166
     55 H           2.3814   -2.3948   -2.3601 H       1  LIG1        0.0720
     56 H           1.3930   -1.7928   -3.7417 H       1  LIG1        0.0720
     57 H           5.0855   -4.9625    1.9070 H       1  LIG1        0.0295
     58 H           4.0770   -5.0233    0.4543 H       1  LIG1        0.0295
     59 H           0.7656   -4.1302   -3.0081 H       1  LIG1        0.0591
     60 H           0.2709   -3.4711   -1.4314 H       1  LIG1        0.0591
     61 H           6.4085    2.5287   -3.8692 H       1  LIG1        0.0660
     62 H           6.2434    2.3129   -2.1243 H       1  LIG1        0.0660
     63 H           5.2569    3.5492   -2.9993 H       1  LIG1        0.0660
     64 H           3.6490   -6.7436    2.9467 H       1  LIG1        0.0231
     65 H           4.3826   -7.2750    1.4231 H       1  LIG1        0.0231
     66 H           2.6756   -6.8125    1.4638 H       1  LIG1        0.0231
@<TRIPOS>BOND
     1     1    16   ar
     2     2    16   ar
     3     3    20    1
     4     3    31    1
     5     4    19    1
     6     4    33    1
     7     5    25    1
     8     5    32    1
     9     6    29    1
    10     6    32    1
    11     7    30    1
    12     7    36    1
    13     8    35    1
    14     9    10    1
    15     9    11    1
    16     9    16    1
    17    10    12    1
    18    10    14    1
    19    11    13    1
    20    11    15    1
    21    12    13   ar
    22    12    17   ar
    23    13    18   ar
    24    14    19   ar
    25    14    24   ar
    26    15    21   ar
    27    15    23   ar
    28    17    20   ar
    29    18    22   ar
    30    19    27   ar
    31    20    22   ar
    32    21    25   ar
    33    23    26   ar
    34    24    28   ar
    35    25    29   ar
    36    26    29   ar
    37    27    30   ar
    38    28    30   ar
    39    31    34    1
    40    33    35    1
    41    34    37    1
    42     8    38    1
    43     9    39    1
    44    10    40    1
    45    11    41    1
    46    17    42    1
    47    18    43    1
    48    21    44    1
    49    22    45    1
    50    23    46    1
    51    24    47    1
    52    26    48    1
    53    27    49    1
    54    28    50    1
    55    31    51    1
    56    31    52    1
    57    32    53    1
    58    32    54    1
    59    33    55    1
    60    33    56    1
    61    34    57    1
    62    34    58    1
    63    35    59    1
    64    35    60    1
    65    36    61    1
    66    36    62    1
    67    36    63    1
    68    37    64    1
    69    37    65    1
    70    37    66    1
@<TRIPOS>MOLECULE
178103
 66 70 0 0 0
SMALL
GASTEIGER

@<TRIPOS>ATOM
      1 O          -0.6215    2.5371    2.3734 O.co2   1  LIG1       -0.5495
      2 O          -1.6876    3.3231    0.5260 O.co2   1  LIG1       -0.5495
      3 O           1.7811   -4.2110    1.5835 O.3     1  LIG1       -0.4920
      4 O           1.9070    3.1546    0.1668 O.3     1  LIG1       -0.4893
      5 O          -6.6117   -0.4920    0.3836 O.3     1  LIG1       -0.4526
      6 O          -6.5107   -0.4727   -2.0282 O.3     1  LIG1       -0.4526
      7 O           4.5169    1.5965   -3.5008 O.3     1  LIG1       -0.4950
      8 O           1.2562    6.7569    0.0640 O.3     1  LIG1       -0.3917
      9 C          -0.6773    1.2006    0.4034 C.3     1  LIG1        0.0203
     10 C           0.7370    0.6556    0.7172 C.3     1  LIG1        0.0218
     11 C          -1.7248    0.1733    0.9071 C.3     1  LIG1        0.0184
     12 C           0.4585   -0.8024    1.0405 C.ar    1  LIG1       -0.0320
     13 C          -0.9058   -1.0882    1.0460 C.ar    1  LIG1       -0.0353
     14 C           1.7081    0.8798   -0.4590 C.ar    1  LIG1        0.0025
     15 C          -2.9732    0.0054    0.0487 C.ar    1  LIG1       -0.0356
     16 C          -1.0145    2.4715    1.1774 C.2     1  LIG1        0.0466
     17 C           1.3961   -1.7996    1.3052 C.ar    1  LIG1       -0.0159
     18 C          -1.3526   -2.3848    1.2686 C.ar    1  LIG1       -0.0542
     19 C           2.2854    2.1449   -0.6772 C.ar    1  LIG1        0.1278
     20 C           0.9628   -3.1187    1.4519 C.ar    1  LIG1        0.1208
     21 C          -4.2162   -0.1593    0.6919 C.ar    1  LIG1       -0.0124
     22 C          -0.4105   -3.4018    1.4489 C.ar    1  LIG1       -0.0196
     23 C          -2.9289   -0.0156   -1.3650 C.ar    1  LIG1       -0.0543
     24 C           2.0420   -0.1496   -1.3619 C.ar    1  LIG1       -0.0510
     25 C          -5.3455   -0.3166   -0.0827 C.ar    1  LIG1        0.1665
     26 C          -4.0947   -0.1623   -2.1270 C.ar    1  LIG1       -0.0159
     27 C           3.2290    2.3263   -1.6999 C.ar    1  LIG1        0.0221
     28 C           2.9781    0.0399   -2.3841 C.ar    1  LIG1       -0.0194
     29 C          -5.2869   -0.3114   -1.4552 C.ar    1  LIG1        0.1662
     30 C           3.5814    1.2798   -2.5531 C.ar    1  LIG1        0.1236
     31 C           3.1568   -4.0023    1.2581 C.3     1  LIG1        0.0893
     32 C          -7.3450   -0.5490   -0.8545 C.3     1  LIG1        0.2332
     33 C           1.9472    4.4756   -0.3768 C.3     1  LIG1        0.1126
     34 C           3.7899   -5.3582    0.9621 C.3     1  LIG1       -0.0215
     35 C           1.0264    5.3901    0.4215 C.3     1  LIG1        0.0783
     36 C           4.8086    0.5959   -4.4669 C.3     1  LIG1        0.0788
     37 C           5.2705   -5.2250    0.6510 C.3     1  LIG1       -0.0622
     38 H           0.5297    7.2448    0.4906 H       1  LIG1        0.2095
     39 H          -0.7731    1.4142   -0.6672 H       1  LIG1        0.0379
     40 H           1.1829    1.0989    1.6159 H       1  LIG1        0.0405
     41 H          -2.0522    0.4316    1.9250 H       1  LIG1        0.0404
     42 H           2.4436   -1.5244    1.3469 H       1  LIG1        0.0657
     43 H          -2.4138   -2.6110    1.2943 H       1  LIG1        0.0622
     44 H          -4.2916   -0.1519    1.7744 H       1  LIG1        0.0658
     45 H          -0.7482   -4.4250    1.5880 H       1  LIG1        0.0654
     46 H          -1.9794    0.0979   -1.8828 H       1  LIG1        0.0622
     47 H           1.5794   -1.1304   -1.2811 H       1  LIG1        0.0623
     48 H          -4.0576   -0.1505   -3.2093 H       1  LIG1        0.0655
     49 H           3.7117    3.2876   -1.8443 H       1  LIG1        0.0691
     50 H           3.2118   -0.8065   -3.0193 H       1  LIG1        0.0654
     51 H           3.6579   -3.5270    2.1093 H       1  LIG1        0.0696
     52 H           3.2657   -3.3755    0.3641 H       1  LIG1        0.0696
     53 H          -8.0612    0.2809   -0.8770 H       1  LIG1        0.1166
     54 H          -7.9032   -1.4919   -0.8862 H       1  LIG1        0.1166
     55 H           1.6257    4.4946   -1.4269 H       1  LIG1        0.0720
     56 H           2.9732    4.8586   -0.3247 H       1  LIG1        0.0720
     57 H           3.2734   -5.8203    0.1117 H       1  LIG1        0.0295
     58 H           3.6421   -6.0356    1.8109 H       1  LIG1        0.0295
     59 H          -0.0181    5.1566    0.2056 H       1  LIG1        0.0591
     60 H           1.1895    5.2742    1.4974 H       1  LIG1        0.0591
     61 H           5.5059    1.0254   -5.1926 H       1  LIG1        0.0660
     62 H           3.9082    0.2933   -5.0122 H       1  LIG1        0.0660
     63 H           5.2993   -0.2664   -4.0034 H       1  LIG1        0.0660
     64 H           5.4368   -4.5418   -0.1881 H       1  LIG1        0.0231
     65 H           5.6930   -6.1987    0.3845 H       1  LIG1        0.0231
     66 H           5.8178   -4.8417    1.5182 H       1  LIG1        0.0231
@<TRIPOS>BOND
     1     1    16   ar
     2     2    16   ar
     3     3    20    1
     4     3    31    1
     5     4    19    1
     6     4    33    1
     7     5    25    1
     8     5    32    1
     9     6    29    1
    10     6    32    1
    11     7    30    1
    12     7    36    1
    13     8    35    1
    14     9    10    1
    15     9    11    1
    16     9    16    1
    17    10    12    1
    18    10    14    1
    19    11    13    1
    20    11    15    1
    21    12    13   ar
    22    12    17   ar
    23    13    18   ar
    24    14    19   ar
    25    14    24   ar
    26    15    21   ar
    27    15    23   ar
    28    17    20   ar
    29    18    22   ar
    30    19    27   ar
    31    20    22   ar
    32    21    25   ar
    33    23    26   ar
    34    24    28   ar
    35    25    29   ar
    36    26    29   ar
    37    27    30   ar
    38    28    30   ar
    39    31    34    1
    40    33    35    1
    41    34    37    1
    42     8    38    1
    43     9    39    1
    44    10    40    1
    45    11    41    1
    46    17    42    1
    47    18    43    1
    48    21    44    1
    49    22    45    1
    50    23    46    1
    51    24    47    1
    52    26    48    1
    53    27    49    1
    54    28    50    1
    55    31    51    1
    56    31    52    1
    57    32    53    1
    58    32    54    1
    59    33    55    1
    60    33    56    1
    61    34    57    1
    62    34    58    1
    63    35    59    1
    64    35    60    1
    65    36    61    1
    66    36    62    1
    67    36    63    1
    68    37    64    1
    69    37    65    1
    70    37    66    1
@<TRIPOS>MOLECULE
178103
 66 70 0 0 0
SMALL
GASTEIGER

@<TRIPOS>ATOM
      1 O          -0.3121    3.4047    0.3253 O.co2   1  LIG1       -0.5495
      2 O          -1.3427    2.5847    2.1783 O.co2   1  LIG1       -0.5495
      3 O           1.8346   -4.2926    1.4495 O.3     1  LIG1       -0.4920
      4 O           3.3978    1.0598    1.2479 O.3     1  LIG1       -0.4893
      5 O          -4.8436   -2.0437   -2.2671 O.3     1  LIG1       -0.4526
      6 O          -6.4752   -0.2817   -2.0232 O.3     1  LIG1       -0.4526
      7 O           4.6785    1.3625   -3.3427 O.3     1  LIG1       -0.4950
      8 O           3.8055    2.1801    3.8712 O.3     1  LIG1       -0.3917
      9 C          -0.7447    1.0936    0.4237 C.3     1  LIG1        0.0203
     10 C           0.6949    0.5767    0.6906 C.3     1  LIG1        0.0218
     11 C          -1.7359    0.0838    1.0508 C.3     1  LIG1        0.0184
     12 C           0.4552   -0.8963    0.9522 C.ar    1  LIG1       -0.0320
     13 C          -0.8937   -1.1659    1.1794 C.ar    1  LIG1       -0.0353
     14 C           1.7323    0.8108   -0.4100 C.ar    1  LIG1        0.0025
     15 C          -3.0067   -0.0252    0.2076 C.ar    1  LIG1       -0.0356
     16 C          -0.8030    2.4869    1.0424 C.2     1  LIG1        0.0466
     17 C           1.4140   -1.9014    1.0588 C.ar    1  LIG1       -0.0159
     18 C          -1.2979   -2.4397    1.5604 C.ar    1  LIG1       -0.0542
     19 C           3.0788    1.0832   -0.0865 C.ar    1  LIG1        0.1278
     20 C           1.0094   -3.2007    1.3676 C.ar    1  LIG1        0.1208
     21 C          -3.2493   -1.0733   -0.6977 C.ar    1  LIG1       -0.0124
     22 C          -0.3433   -3.4588    1.6327 C.ar    1  LIG1       -0.0196
     23 C          -3.9710    1.0086    0.3251 C.ar    1  LIG1       -0.0543
     24 C           1.3867    0.7008   -1.7685 C.ar    1  LIG1       -0.0510
     25 C          -4.4426   -1.0817   -1.3913 C.ar    1  LIG1        0.1665
     26 C          -5.1605    0.9889   -0.4113 C.ar    1  LIG1       -0.0159
     27 C           4.0180    1.2774   -1.1083 C.ar    1  LIG1        0.0221
     28 C           2.3321    0.8904   -2.7802 C.ar    1  LIG1       -0.0194
     29 C          -5.3730   -0.0794   -1.2515 C.ar    1  LIG1        0.1662
     30 C           3.6523    1.1786   -2.4538 C.ar    1  LIG1        0.1236
     31 C           3.1952   -4.0834    1.0676 C.3     1  LIG1        0.0893
     32 C          -6.1458   -1.5455   -2.6313 C.3     1  LIG1        0.2332
     33 C           4.6430    1.6324    1.6489 C.3     1  LIG1        0.1126
     34 C           3.8842   -5.4428    1.0067 C.3     1  LIG1       -0.0215
     35 C           4.7779    1.4257    3.1557 C.3     1  LIG1        0.0783
     36 C           4.3580    1.2167   -4.7201 C.3     1  LIG1        0.0788
     37 C           5.3567   -5.3101    0.6603 C.3     1  LIG1       -0.0622
     38 H           2.9492    2.0374    3.4174 H       1  LIG1        0.2095
     39 H          -0.9611    1.2072   -0.6445 H       1  LIG1        0.0379
     40 H           1.0568    1.0138    1.6316 H       1  LIG1        0.0405
     41 H          -2.0339    0.3495    2.0726 H       1  LIG1        0.0404
     42 H           2.4538   -1.6428    0.9019 H       1  LIG1        0.0657
     43 H          -2.3394   -2.6450    1.7869 H       1  LIG1        0.0622
     44 H          -2.5320   -1.8698   -0.8595 H       1  LIG1        0.0658
     45 H          -0.6538   -4.4644    1.9021 H       1  LIG1        0.0654
     46 H          -3.7757    1.8462    0.9975 H       1  LIG1        0.0622
     47 H           0.3676    0.4595   -2.0596 H       1  LIG1        0.0623
     48 H          -5.8849    1.7890   -0.3183 H       1  LIG1        0.0655
     49 H           5.0583    1.4880   -0.8911 H       1  LIG1        0.0691
     50 H           1.9943    0.8056   -3.8066 H       1  LIG1        0.0654
     51 H           3.6919   -3.4487    1.8115 H       1  LIG1        0.0696
     52 H           3.2526   -3.6160    0.0766 H       1  LIG1        0.0696
     53 H          -6.8986   -2.2841   -2.3302 H       1  LIG1        0.1166
     54 H          -6.1858   -1.4338   -3.7206 H       1  LIG1        0.1166
     55 H           4.6449    2.7021    1.4110 H       1  LIG1        0.0720
     56 H           5.4806    1.1211    1.1638 H       1  LIG1        0.0720
     57 H           3.3824   -6.0711    0.2607 H       1  LIG1        0.0295
     58 H           3.7703   -5.9616    1.9657 H       1  LIG1        0.0295
     59 H           4.6406    0.3711    3.4165 H       1  LIG1        0.0591
     60 H           5.7666    1.7459    3.4971 H       1  LIG1        0.0591
     61 H           5.2777    1.3649   -5.2941 H       1  LIG1        0.0660
     62 H           3.6385    1.9768   -5.0413 H       1  LIG1        0.0660
     63 H           3.9926    0.2071   -4.9369 H       1  LIG1        0.0660
     64 H           5.4915   -4.7965   -0.2972 H       1  LIG1        0.0231
     65 H           5.8198   -6.2987    0.5836 H       1  LIG1        0.0231
     66 H           5.8896   -4.7440    1.4310 H       1  LIG1        0.0231
@<TRIPOS>BOND
     1     1    16   ar
     2     2    16   ar
     3     3    20    1
     4     3    31    1
     5     4    19    1
     6     4    33    1
     7     5    25    1
     8     5    32    1
     9     6    29    1
    10     6    32    1
    11     7    30    1
    12     7    36    1
    13     8    35    1
    14     9    10    1
    15     9    11    1
    16     9    16    1
    17    10    12    1
    18    10    14    1
    19    11    13    1
    20    11    15    1
    21    12    13   ar
    22    12    17   ar
    23    13    18   ar
    24    14    19   ar
    25    14    24   ar
    26    15    21   ar
    27    15    23   ar
    28    17    20   ar
    29    18    22   ar
    30    19    27   ar
    31    20    22   ar
    32    21    25   ar
    33    23    26   ar
    34    24    28   ar
    35    25    29   ar
    36    26    29   ar
    37    27    30   ar
    38    28    30   ar
    39    31    34    1
    40    33    35    1
    41    34    37    1
    42     8    38    1
    43     9    39    1
    44    10    40    1
    45    11    41    1
    46    17    42    1
    47    18    43    1
    48    21    44    1
    49    22    45    1
    50    23    46    1
    51    24    47    1
    52    26    48    1
    53    27    49    1
    54    28    50    1
    55    31    51    1
    56    31    52    1
    57    32    53    1
    58    32    54    1
    59    33    55    1
    60    33    56    1
    61    34    57    1
    62    34    58    1
    63    35    59    1
    64    35    60    1
    65    36    61    1
    66    36    62    1
    67    36    63    1
    68    37    64    1
    69    37    65    1
    70    37    66    1
@<TRIPOS>MOLECULE
178103
 66 70 0 0 0
SMALL
GASTEIGER

@<TRIPOS>ATOM
      1 O          -0.1676    3.4515    0.4019 O.co2   1  LIG1       -0.5495
      2 O          -1.3431    2.6055    2.1432 O.co2   1  LIG1       -0.5495
      3 O           1.8699   -4.1084    1.8208 O.3     1  LIG1       -0.4920
      4 O           2.8099    2.4838    0.8684 O.3     1  LIG1       -0.4893
      5 O          -4.8478   -1.9956   -2.3234 O.3     1  LIG1       -0.4526
      6 O          -6.4481   -0.1990   -2.1303 O.3     1  LIG1       -0.4526
      7 O           4.5318    1.5162   -3.4542 O.3     1  LIG1       -0.4950
      8 O           1.3180    5.3717    1.4046 O.3     1  LIG1       -0.3917
      9 C          -0.6753    1.1380    0.3878 C.3     1  LIG1        0.0203
     10 C           0.7296    0.5718    0.7138 C.3     1  LIG1        0.0218
     11 C          -1.7273    0.1559    0.9647 C.3     1  LIG1        0.0184
     12 C           0.4365   -0.8852    1.0150 C.ar    1  LIG1       -0.0320
     13 C          -0.9306   -1.1121    1.1657 C.ar    1  LIG1       -0.0353
     14 C           1.7404    0.7905   -0.4093 C.ar    1  LIG1        0.0025
     15 C          -2.9710    0.0671    0.0833 C.ar    1  LIG1       -0.0356
     16 C          -0.7358    2.5162    1.0421 C.2     1  LIG1        0.0466
     17 C           1.3528   -1.9084    1.2399 C.ar    1  LIG1       -0.0159
     18 C          -1.3984   -2.3563    1.5723 C.ar    1  LIG1       -0.0542
     19 C           2.7431    1.7690   -0.3001 C.ar    1  LIG1        0.1278
     20 C           0.8907   -3.1714    1.6235 C.ar    1  LIG1        0.1208
     21 C          -3.2281   -1.0010   -0.7937 C.ar    1  LIG1       -0.0124
     22 C          -0.4844   -3.3935    1.7800 C.ar    1  LIG1       -0.0196
     23 C          -3.9148    1.1230    0.1655 C.ar    1  LIG1       -0.0543
     24 C           1.6628    0.0545   -1.6062 C.ar    1  LIG1       -0.0510
     25 C          -4.4231   -1.0091   -1.4858 C.ar    1  LIG1        0.1665
     26 C          -5.1039    1.1038   -0.5705 C.ar    1  LIG1       -0.0159
     27 C           3.6661    1.9565   -1.3373 C.ar    1  LIG1        0.0221
     28 C           2.5742    0.2616   -2.6483 C.ar    1  LIG1       -0.0194
     29 C          -5.3362    0.0123   -1.3754 C.ar    1  LIG1        0.1662
     30 C           3.5783    1.2174   -2.5177 C.ar    1  LIG1        0.1236
     31 C           1.4977   -5.2678    2.5642 C.3     1  LIG1        0.0893
     32 C          -6.1489   -1.4940   -2.6876 C.3     1  LIG1        0.2332
     33 C           3.1107    3.8771    0.6993 C.3     1  LIG1        0.1126
     34 C           2.7632   -6.0303    2.9508 C.3     1  LIG1       -0.0215
     35 C           2.4801    4.6726    1.8428 C.3     1  LIG1        0.0783
     36 C           4.3405    0.9644   -4.7498 C.3     1  LIG1        0.0788
     37 C           3.6676   -5.2148    3.8652 C.3     1  LIG1       -0.0622
     38 H           0.6920    4.6743    1.0543 H       1  LIG1        0.2095
     39 H          -0.8174    1.2573   -0.6965 H       1  LIG1        0.0379
     40 H           1.1136    0.9913    1.6537 H       1  LIG1        0.0405
     41 H          -2.0676    0.4341    1.9707 H       1  LIG1        0.0404
     42 H           2.4179   -1.7205    1.1426 H       1  LIG1        0.0657
     43 H          -2.4600   -2.5188    1.7339 H       1  LIG1        0.0622
     44 H          -2.5282   -1.8179   -0.9239 H       1  LIG1        0.0658
     45 H          -0.8754   -4.3612    2.0734 H       1  LIG1        0.0654
     46 H          -3.7101    1.9714    0.8222 H       1  LIG1        0.0622
     47 H           0.8794   -0.6901   -1.7332 H       1  LIG1        0.0623
     48 H          -5.8159    1.9162   -0.4976 H       1  LIG1        0.0655
     49 H           4.4625    2.6867   -1.2392 H       1  LIG1        0.0691
     50 H           2.4695   -0.3435   -3.5412 H       1  LIG1        0.0654
     51 H           0.8705   -5.9156    1.9405 H       1  LIG1        0.0696
     52 H           0.9522   -4.9929    3.4754 H       1  LIG1        0.0696
     53 H          -6.9076   -2.2060   -2.3403 H       1  LIG1        0.1166
     54 H          -6.2064   -1.4288   -3.7795 H       1  LIG1        0.1166
     55 H           2.7548    4.2612   -0.2651 H       1  LIG1        0.0720
     56 H           4.2006    3.9777    0.7571 H       1  LIG1        0.0720
     57 H           3.3264   -6.2917    2.0475 H       1  LIG1        0.0295
     58 H           2.4857   -6.9628    3.4541 H       1  LIG1        0.0295
     59 H           2.2118    4.0412    2.6950 H       1  LIG1        0.0591
     60 H           3.1821    5.4396    2.1844 H       1  LIG1        0.0591
     61 H           5.1020    1.3915   -5.4095 H       1  LIG1        0.0660
     62 H           3.3604    1.2314   -5.1593 H       1  LIG1        0.0660
     63 H           4.4824   -0.1209   -4.7362 H       1  LIG1        0.0660
     64 H           4.0215   -4.3064    3.3675 H       1  LIG1        0.0231
     65 H           4.5439   -5.8037    4.1529 H       1  LIG1        0.0231
     66 H           3.1395   -4.9224    4.7782 H       1  LIG1        0.0231
@<TRIPOS>BOND
     1     1    16   ar
     2     2    16   ar
     3     3    20    1
     4     3    31    1
     5     4    19    1
     6     4    33    1
     7     5    25    1
     8     5    32    1
     9     6    29    1
    10     6    32    1
    11     7    30    1
    12     7    36    1
    13     8    35    1
    14     9    10    1
    15     9    11    1
    16     9    16    1
    17    10    12    1
    18    10    14    1
    19    11    13    1
    20    11    15    1
    21    12    13   ar
    22    12    17   ar
    23    13    18   ar
    24    14    19   ar
    25    14    24   ar
    26    15    21   ar
    27    15    23   ar
    28    17    20   ar
    29    18    22   ar
    30    19    27   ar
    31    20    22   ar
    32    21    25   ar
    33    23    26   ar
    34    24    28   ar
    35    25    29   ar
    36    26    29   ar
    37    27    30   ar
    38    28    30   ar
    39    31    34    1
    40    33    35    1
    41    34    37    1
    42     8    38    1
    43     9    39    1
    44    10    40    1
    45    11    41    1
    46    17    42    1
    47    18    43    1
    48    21    44    1
    49    22    45    1
    50    23    46    1
    51    24    47    1
    52    26    48    1
    53    27    49    1
    54    28    50    1
    55    31    51    1
    56    31    52    1
    57    32    53    1
    58    32    54    1
    59    33    55    1
    60    33    56    1
    61    34    57    1
    62    34    58    1
    63    35    59    1
    64    35    60    1
    65    36    61    1
    66    36    62    1
    67    36    63    1
    68    37    64    1
    69    37    65    1
    70    37    66    1
@<TRIPOS>MOLECULE
178103
 66 70 0 0 0
SMALL
GASTEIGER

@<TRIPOS>ATOM
      1 O           0.1195    3.3572    0.8523 O.co2   1  LIG1       -0.5495
      2 O          -1.6352    2.6555    2.1089 O.co2   1  LIG1       -0.5495
      3 O           1.8103   -4.2852    1.4473 O.3     1  LIG1       -0.4920
      4 O           3.5091    0.7934    1.1931 O.3     1  LIG1       -0.4893
      5 O          -4.8625   -2.1508   -2.1860 O.3     1  LIG1       -0.4526
      6 O          -6.4159   -0.3047   -2.1383 O.3     1  LIG1       -0.4526
      7 O           4.4588    1.5760   -3.5256 O.3     1  LIG1       -0.4950
      8 O           5.3303    0.2330    3.4861 O.3     1  LIG1       -0.3917
      9 C          -0.7013    1.1641    0.4992 C.3     1  LIG1        0.0203
     10 C           0.7327    0.5924    0.7103 C.3     1  LIG1        0.0218
     11 C          -1.7251    0.1190    1.0212 C.3     1  LIG1        0.0184
     12 C           0.4656   -0.8741    0.9623 C.ar    1  LIG1       -0.0320
     13 C          -0.8864   -1.1312    1.1697 C.ar    1  LIG1       -0.0353
     14 C           1.7514    0.8252   -0.4088 C.ar    1  LIG1        0.0025
     15 C          -2.9572    0.0151    0.1122 C.ar    1  LIG1       -0.0356
     16 C          -0.7391    2.5100    1.2315 C.2     1  LIG1        0.0466
     17 C           1.4142   -1.8864    1.0900 C.ar    1  LIG1       -0.0159
     18 C          -1.3025   -2.4023    1.5519 C.ar    1  LIG1       -0.0542
     19 C           3.1200    0.9996   -0.1090 C.ar    1  LIG1        0.1278
     20 C           0.9981   -3.1848    1.3795 C.ar    1  LIG1        0.1208
     21 C          -3.2358   -1.0974   -0.7036 C.ar    1  LIG1       -0.0124
     22 C          -0.3590   -3.4315    1.6287 C.ar    1  LIG1       -0.0196
     23 C          -3.8796    1.0938    0.1130 C.ar    1  LIG1       -0.0543
     24 C           1.3700    0.8422   -1.7608 C.ar    1  LIG1       -0.0510
     25 C          -4.4213   -1.1203   -1.4119 C.ar    1  LIG1        0.1665
     26 C          -5.0571    1.0604   -0.6440 C.ar    1  LIG1       -0.0159
     27 C           4.0510    1.2460   -1.1288 C.ar    1  LIG1        0.0221
     28 C           2.3014    1.0974   -2.7709 C.ar    1  LIG1       -0.0194
     29 C          -5.3072   -0.0725   -1.3805 C.ar    1  LIG1        0.1662
     30 C           3.6370    1.3296   -2.4574 C.ar    1  LIG1        0.1236
     31 C           3.1906   -4.0869    1.1347 C.3     1  LIG1        0.0893
     32 C          -6.1513   -1.6482   -2.5893 C.3     1  LIG1        0.2332
     33 C           4.5487    1.6507    1.6756 C.3     1  LIG1        0.1126
     34 C           3.8147   -5.4392    0.7994 C.3     1  LIG1       -0.0215
     35 C           4.6550    1.4589    3.1873 C.3     1  LIG1        0.0783
     36 C           5.6433    2.3060   -3.2262 C.3     1  LIG1        0.0788
     37 C           3.3021   -5.9710   -0.5341 C.3     1  LIG1       -0.0622
     38 H           4.8574   -0.1640    4.2381 H       1  LIG1        0.2095
     39 H          -0.9115    1.3947   -0.5508 H       1  LIG1        0.0379
     40 H           1.1372    1.0016    1.6469 H       1  LIG1        0.0405
     41 H          -2.0842    0.3523    2.0316 H       1  LIG1        0.0404
     42 H           2.4584   -1.6310    0.9610 H       1  LIG1        0.0657
     43 H          -2.3478   -2.6001    1.7685 H       1  LIG1        0.0622
     44 H          -2.5605   -1.9414   -0.7786 H       1  LIG1        0.0658
     45 H          -0.6821   -4.4358    1.8878 H       1  LIG1        0.0654
     46 H          -3.6725    1.9737    0.7249 H       1  LIG1        0.0622
     47 H           0.3381    0.6620   -2.0488 H       1  LIG1        0.0623
     48 H          -5.7482    1.8938   -0.6321 H       1  LIG1        0.0655
     49 H           5.1014    1.3285   -0.8861 H       1  LIG1        0.0691
     50 H           1.9731    1.1271   -3.8057 H       1  LIG1        0.0654
     51 H           3.6903   -3.6569    2.0104 H       1  LIG1        0.0696
     52 H           3.3310   -3.4280    0.2704 H       1  LIG1        0.0696
     53 H          -6.9272   -2.3106   -2.1867 H       1  LIG1        0.1166
     54 H          -6.2095   -1.6701   -3.6831 H       1  LIG1        0.1166
     55 H           4.2994    2.6952    1.4569 H       1  LIG1        0.0720
     56 H           5.5044    1.3767    1.2163 H       1  LIG1        0.0720
     57 H           3.5814   -6.1675    1.5840 H       1  LIG1        0.0295
     58 H           4.9037   -5.3339    0.7458 H       1  LIG1        0.0295
     59 H           5.2432    2.2651    3.6340 H       1  LIG1        0.0591
     60 H           3.6627    1.4324    3.6490 H       1  LIG1        0.0591
     61 H           6.0785    2.6389   -4.1734 H       1  LIG1        0.0660
     62 H           6.3799    1.6662   -2.7299 H       1  LIG1        0.0660
     63 H           5.4294    3.1980   -2.6269 H       1  LIG1        0.0660
     64 H           2.2198   -6.1293   -0.5097 H       1  LIG1        0.0231
     65 H           3.7814   -6.9250   -0.7718 H       1  LIG1        0.0231
     66 H           3.5259   -5.2691   -1.3448 H       1  LIG1        0.0231
@<TRIPOS>BOND
     1     1    16   ar
     2     2    16   ar
     3     3    20    1
     4     3    31    1
     5     4    19    1
     6     4    33    1
     7     5    25    1
     8     5    32    1
     9     6    29    1
    10     6    32    1
    11     7    30    1
    12     7    36    1
    13     8    35    1
    14     9    10    1
    15     9    11    1
    16     9    16    1
    17    10    12    1
    18    10    14    1
    19    11    13    1
    20    11    15    1
    21    12    13   ar
    22    12    17   ar
    23    13    18   ar
    24    14    19   ar
    25    14    24   ar
    26    15    21   ar
    27    15    23   ar
    28    17    20   ar
    29    18    22   ar
    30    19    27   ar
    31    20    22   ar
    32    21    25   ar
    33    23    26   ar
    34    24    28   ar
    35    25    29   ar
    36    26    29   ar
    37    27    30   ar
    38    28    30   ar
    39    31    34    1
    40    33    35    1
    41    34    37    1
    42     8    38    1
    43     9    39    1
    44    10    40    1
    45    11    41    1
    46    17    42    1
    47    18    43    1
    48    21    44    1
    49    22    45    1
    50    23    46    1
    51    24    47    1
    52    26    48    1
    53    27    49    1
    54    28    50    1
    55    31    51    1
    56    31    52    1
    57    32    53    1
    58    32    54    1
    59    33    55    1
    60    33    56    1
    61    34    57    1
    62    34    58    1
    63    35    59    1
    64    35    60    1
    65    36    61    1
    66    36    62    1
    67    36    63    1
    68    37    64    1
    69    37    65    1
    70    37    66    1
@<TRIPOS>MOLECULE
178103
 66 70 0 0 0
SMALL
GASTEIGER

@<TRIPOS>ATOM
      1 O          -0.6308    2.4126    2.3682 O.co2   1  LIG1       -0.5495
      2 O          -1.0799    3.4076    0.3709 O.co2   1  LIG1       -0.5495
      3 O           1.7071   -4.2722    1.6499 O.3     1  LIG1       -0.4920
      4 O           3.4783    0.7348    1.1973 O.3     1  LIG1       -0.4893
      5 O          -4.9728   -2.0751   -2.1907 O.3     1  LIG1       -0.4526
      6 O          -6.4788   -0.1907   -2.1465 O.3     1  LIG1       -0.4526
      7 O           4.6209    1.5326   -3.3817 O.3     1  LIG1       -0.4950
      8 O           4.8520   -0.3853    3.4964 O.3     1  LIG1       -0.3917
      9 C          -0.6806    1.0873    0.3933 C.3     1  LIG1        0.0203
     10 C           0.7193    0.4646    0.6628 C.3     1  LIG1        0.0218
     11 C          -1.7573    0.1375    0.9704 C.3     1  LIG1        0.0184
     12 C           0.3772   -0.9843    0.9322 C.ar    1  LIG1       -0.0320
     13 C          -0.9888   -1.1527    1.1515 C.ar    1  LIG1       -0.0353
     14 C           1.7625    0.6700   -0.4393 C.ar    1  LIG1        0.0025
     15 C          -2.9993    0.0634    0.0740 C.ar    1  LIG1       -0.0356
     16 C          -0.7919    2.4266    1.1172 C.2     1  LIG1        0.0466
     17 C           1.2528   -2.0535    1.1053 C.ar    1  LIG1       -0.0159
     18 C          -1.4917   -2.3795    1.5695 C.ar    1  LIG1       -0.0542
     19 C           3.1278    0.8564   -0.1258 C.ar    1  LIG1        0.1278
     20 C           0.7524   -3.3053    1.4836 C.ar    1  LIG1        0.1208
     21 C          -3.3117   -1.0493   -0.7299 C.ar    1  LIG1       -0.0124
     22 C          -0.6207   -3.4643    1.7052 C.ar    1  LIG1       -0.0196
     23 C          -3.8866    1.1697    0.0662 C.ar    1  LIG1       -0.0543
     24 C           1.3911    0.6757   -1.7967 C.ar    1  LIG1       -0.0510
     25 C          -4.5022   -1.0504   -1.4276 C.ar    1  LIG1        0.1665
     26 C          -5.0716    1.1567   -0.6786 C.ar    1  LIG1       -0.0159
     27 C           4.0489    1.1251   -1.1494 C.ar    1  LIG1        0.0221
     28 C           2.3136    0.9618   -2.8061 C.ar    1  LIG1       -0.0194
     29 C          -5.3612    0.0206   -1.4006 C.ar    1  LIG1        0.1662
     30 C           3.6384    1.2202   -2.4793 C.ar    1  LIG1        0.1236
     31 C           1.2707   -5.6026    1.9158 C.3     1  LIG1        0.0893
     32 C          -6.2480   -1.5410   -2.5952 C.3     1  LIG1        0.2332
     33 C           4.8209    1.0713    1.5568 C.3     1  LIG1        0.1126
     34 C           2.4455   -6.3929    2.4873 C.3     1  LIG1       -0.0215
     35 C           4.9508    0.9752    3.0741 C.3     1  LIG1        0.0783
     36 C           4.1692    2.2504   -4.5261 C.3     1  LIG1        0.0788
     37 C           2.8355   -5.8825    3.8692 C.3     1  LIG1       -0.0622
     38 H           3.9818   -0.6919    3.1744 H       1  LIG1        0.2095
     39 H          -0.8718    1.2603   -0.6702 H       1  LIG1        0.0379
     40 H           1.1222    0.8722    1.5984 H       1  LIG1        0.0405
     41 H          -2.0960    0.4407    1.9703 H       1  LIG1        0.0404
     42 H           2.3204   -1.9143    0.9683 H       1  LIG1        0.0657
     43 H          -2.5490   -2.4965    1.7843 H       1  LIG1        0.0622
     44 H          -2.6573   -1.9094   -0.8040 H       1  LIG1        0.0658
     45 H          -1.0541   -4.4085    2.0091 H       1  LIG1        0.0654
     46 H          -3.6402    2.0597    0.6482 H       1  LIG1        0.0622
     47 H           0.3648    0.4714   -2.0909 H       1  LIG1        0.0623
     48 H          -5.7373    2.0104   -0.6781 H       1  LIG1        0.0655
     49 H           5.1007    1.2847   -0.9418 H       1  LIG1        0.0691
     50 H           1.9638    0.9733   -3.8320 H       1  LIG1        0.0654
     51 H           0.9375   -6.0592    0.9767 H       1  LIG1        0.0696
     52 H           0.4583   -5.6401    2.6483 H       1  LIG1        0.0696
     53 H          -7.0402   -2.1834   -2.1907 H       1  LIG1        0.1166
     54 H          -6.3067   -1.5643   -3.6891 H       1  LIG1        0.1166
     55 H           5.0508    2.0963    1.2453 H       1  LIG1        0.0720
     56 H           5.5114    0.3567    1.0927 H       1  LIG1        0.0720
     57 H           3.3132   -6.3121    1.8229 H       1  LIG1        0.0295
     58 H           2.1710   -7.4510    2.5598 H       1  LIG1        0.0295
     59 H           5.9255    1.3534    3.3964 H       1  LIG1        0.0591
     60 H           4.1629    1.5422    3.5789 H       1  LIG1        0.0591
     61 H           5.0494    2.6621   -5.0298 H       1  LIG1        0.0660
     62 H           3.5220    3.0905   -4.2490 H       1  LIG1        0.0660
     63 H           3.6654    1.5820   -5.2310 H       1  LIG1        0.0660
     64 H           3.1806   -4.8442    3.8261 H       1  LIG1        0.0231
     65 H           3.6426   -6.4915    4.2865 H       1  LIG1        0.0231
     66 H           1.9845   -5.9299    4.5571 H       1  LIG1        0.0231
@<TRIPOS>BOND
     1     1    16   ar
     2     2    16   ar
     3     3    20    1
     4     3    31    1
     5     4    19    1
     6     4    33    1
     7     5    25    1
     8     5    32    1
     9     6    29    1
    10     6    32    1
    11     7    30    1
    12     7    36    1
    13     8    35    1
    14     9    10    1
    15     9    11    1
    16     9    16    1
    17    10    12    1
    18    10    14    1
    19    11    13    1
    20    11    15    1
    21    12    13   ar
    22    12    17   ar
    23    13    18   ar
    24    14    19   ar
    25    14    24   ar
    26    15    21   ar
    27    15    23   ar
    28    17    20   ar
    29    18    22   ar
    30    19    27   ar
    31    20    22   ar
    32    21    25   ar
    33    23    26   ar
    34    24    28   ar
    35    25    29   ar
    36    26    29   ar
    37    27    30   ar
    38    28    30   ar
    39    31    34    1
    40    33    35    1
    41    34    37    1
    42     8    38    1
    43     9    39    1
    44    10    40    1
    45    11    41    1
    46    17    42    1
    47    18    43    1
    48    21    44    1
    49    22    45    1
    50    23    46    1
    51    24    47    1
    52    26    48    1
    53    27    49    1
    54    28    50    1
    55    31    51    1
    56    31    52    1
    57    32    53    1
    58    32    54    1
    59    33    55    1
    60    33    56    1
    61    34    57    1
    62    34    58    1
    63    35    59    1
    64    35    60    1
    65    36    61    1
    66    36    62    1
    67    36    63    1
    68    37    64    1
    69    37    65    1
    70    37    66    1
@<TRIPOS>MOLECULE
178103
 66 70 0 0 0
SMALL
GASTEIGER

@<TRIPOS>ATOM
      1 O          -0.7511    2.4603    2.4088 O.co2   1  LIG1       -0.5495
      2 O          -1.1169    3.4399    0.3880 O.co2   1  LIG1       -0.5495
      3 O           1.8363   -4.2856    1.3940 O.3     1  LIG1       -0.4920
      4 O           3.4424    0.9748    1.1965 O.3     1  LIG1       -0.4893
      5 O          -4.8380   -2.0693   -2.2126 O.3     1  LIG1       -0.4526
      6 O          -6.4427   -0.2754   -2.0349 O.3     1  LIG1       -0.4526
      7 O           4.5971    1.6545   -3.3945 O.3     1  LIG1       -0.4950
      8 O           4.6309   -0.3610    3.4072 O.3     1  LIG1       -0.3917
      9 C          -0.7189    1.1224    0.4430 C.3     1  LIG1        0.0203
     10 C           0.7197    0.5960    0.6800 C.3     1  LIG1        0.0218
     11 C          -1.7140    0.1106    1.0619 C.3     1  LIG1        0.0184
     12 C           0.4775   -0.8765    0.9337 C.ar    1  LIG1       -0.0320
     13 C          -0.8694   -1.1383    1.1877 C.ar    1  LIG1       -0.0353
     14 C           1.7379    0.8575   -0.4348 C.ar    1  LIG1        0.0025
     15 C          -2.9812   -0.0017    0.2091 C.ar    1  LIG1       -0.0356
     16 C          -0.8640    2.4664    1.1504 C.2     1  LIG1        0.0466
     17 C           1.4317   -1.8873    1.0252 C.ar    1  LIG1       -0.0159
     18 C          -1.2737   -2.4088    1.5795 C.ar    1  LIG1       -0.0542
     19 C           3.1004    1.0695   -0.1282 C.ar    1  LIG1        0.1278
     20 C           1.0241   -3.1843    1.3386 C.ar    1  LIG1        0.1208
     21 C          -3.2373   -1.0743   -0.6644 C.ar    1  LIG1       -0.0124
     22 C          -0.3249   -3.4336    1.6311 C.ar    1  LIG1       -0.0196
     23 C          -3.9301    1.0500    0.2860 C.ar    1  LIG1       -0.0543
     24 C           1.3612    0.8428   -1.7896 C.ar    1  LIG1       -0.0510
     25 C          -4.4270   -1.0863   -1.3648 C.ar    1  LIG1        0.1665
     26 C          -5.1164    1.0251   -0.4566 C.ar    1  LIG1       -0.0159
     27 C           4.0188    1.3261   -1.1547 C.ar    1  LIG1        0.0221
     28 C           2.2826    1.1080   -2.8058 C.ar    1  LIG1       -0.0194
     29 C          -5.3422   -0.0663   -1.2624 C.ar    1  LIG1        0.1662
     30 C           3.6089    1.3751   -2.4878 C.ar    1  LIG1        0.1236
     31 C           3.2121   -4.0895    1.0646 C.3     1  LIG1        0.0893
     32 C          -6.1280   -1.5614   -2.6044 C.3     1  LIG1        0.2332
     33 C           4.8058    1.1937    1.5586 C.3     1  LIG1        0.1126
     34 C           3.8543   -5.4547    0.8291 C.3     1  LIG1       -0.0215
     35 C           4.9187    0.9965    3.0671 C.3     1  LIG1        0.0783
     36 C           4.1517    2.2393   -4.6136 C.3     1  LIG1        0.0788
     37 C           3.3311   -6.1066   -0.4448 C.3     1  LIG1       -0.0622
     38 H           3.7113   -0.5088    3.1075 H       1  LIG1        0.2095
     39 H          -0.9473    1.2679   -0.6176 H       1  LIG1        0.0379
     40 H           1.1100    1.0184    1.6150 H       1  LIG1        0.0405
     41 H          -2.0229    0.3832    2.0796 H       1  LIG1        0.0404
     42 H           2.4699   -1.6362    0.8499 H       1  LIG1        0.0657
     43 H          -2.3119   -2.6082    1.8264 H       1  LIG1        0.0622
     44 H          -2.5329   -1.8866   -0.8000 H       1  LIG1        0.0658
     45 H          -0.6366   -4.4377    1.9050 H       1  LIG1        0.0654
     46 H          -3.7250    1.9125    0.9230 H       1  LIG1        0.0622
     47 H           0.3352    0.6240   -2.0773 H       1  LIG1        0.0623
     48 H          -5.8258    1.8414   -0.3971 H       1  LIG1        0.0655
     49 H           5.0674    1.5056   -0.9476 H       1  LIG1        0.0691
     50 H           1.9299    1.0907   -3.8306 H       1  LIG1        0.0654
     51 H           3.7107   -3.5898    1.9032 H       1  LIG1        0.0696
     52 H           3.3315   -3.4914    0.1537 H       1  LIG1        0.0696
     53 H          -6.8961   -2.2787   -2.2910 H       1  LIG1        0.1166
     54 H          -6.1546   -1.4783   -3.6967 H       1  LIG1        0.1166
     55 H           5.1065    2.2151    1.3009 H       1  LIG1        0.0720
     56 H           5.4441    0.4587    1.0542 H       1  LIG1        0.0720
     57 H           3.6457   -6.1183    1.6759 H       1  LIG1        0.0295
     58 H           4.9406   -5.3372    0.7499 H       1  LIG1        0.0295
     59 H           5.9331    1.2219    3.4085 H       1  LIG1        0.0591
     60 H           4.2109    1.6342    3.6059 H       1  LIG1        0.0591
     61 H           5.0319    2.6196   -5.1410 H       1  LIG1        0.0660
     62 H           3.4806    3.0865   -4.4333 H       1  LIG1        0.0660
     63 H           3.6778    1.4903   -5.2556 H       1  LIG1        0.0660
     64 H           2.2508   -6.2735   -0.3926 H       1  LIG1        0.0231
     65 H           3.8173   -7.0738   -0.6037 H       1  LIG1        0.0231
     66 H           3.5376   -5.4772   -1.3170 H       1  LIG1        0.0231
@<TRIPOS>BOND
     1     1    16   ar
     2     2    16   ar
     3     3    20    1
     4     3    31    1
     5     4    19    1
     6     4    33    1
     7     5    25    1
     8     5    32    1
     9     6    29    1
    10     6    32    1
    11     7    30    1
    12     7    36    1
    13     8    35    1
    14     9    10    1
    15     9    11    1
    16     9    16    1
    17    10    12    1
    18    10    14    1
    19    11    13    1
    20    11    15    1
    21    12    13   ar
    22    12    17   ar
    23    13    18   ar
    24    14    19   ar
    25    14    24   ar
    26    15    21   ar
    27    15    23   ar
    28    17    20   ar
    29    18    22   ar
    30    19    27   ar
    31    20    22   ar
    32    21    25   ar
    33    23    26   ar
    34    24    28   ar
    35    25    29   ar
    36    26    29   ar
    37    27    30   ar
    38    28    30   ar
    39    31    34    1
    40    33    35    1
    41    34    37    1
    42     8    38    1
    43     9    39    1
    44    10    40    1
    45    11    41    1
    46    17    42    1
    47    18    43    1
    48    21    44    1
    49    22    45    1
    50    23    46    1
    51    24    47    1
    52    26    48    1
    53    27    49    1
    54    28    50    1
    55    31    51    1
    56    31    52    1
    57    32    53    1
    58    32    54    1
    59    33    55    1
    60    33    56    1
    61    34    57    1
    62    34    58    1
    63    35    59    1
    64    35    60    1
    65    36    61    1
    66    36    62    1
    67    36    63    1
    68    37    64    1
    69    37    65    1
    70    37    66    1
@<TRIPOS>MOLECULE
178103
 66 70 0 0 0
SMALL
GASTEIGER

@<TRIPOS>ATOM
      1 O          -0.7914    2.4714    2.3860 O.co2   1  LIG1       -0.5495
      2 O          -1.1288    3.4418    0.3534 O.co2   1  LIG1       -0.5495
      3 O           1.8415   -4.2642    1.4434 O.3     1  LIG1       -0.4920
      4 O           3.4384    1.0756    1.2351 O.3     1  LIG1       -0.4893
      5 O          -4.9422   -2.1783   -2.0967 O.3     1  LIG1       -0.4526
      6 O          -6.4492   -0.2933   -2.0967 O.3     1  LIG1       -0.4526
      7 O           4.6009    1.6554   -3.3670 O.3     1  LIG1       -0.4950
      8 O           4.4978    1.8612    3.8222 O.3     1  LIG1       -0.3917
      9 C          -0.7272    1.1240    0.4300 C.3     1  LIG1        0.0203
     10 C           0.7105    0.6066    0.6984 C.3     1  LIG1        0.0218
     11 C          -1.7337    0.1088    1.0301 C.3     1  LIG1        0.0184
     12 C           0.4678   -0.8651    0.9562 C.ar    1  LIG1       -0.0320
     13 C          -0.8827   -1.1345    1.1803 C.ar    1  LIG1       -0.0353
     14 C           1.7404    0.8640   -0.4066 C.ar    1  LIG1        0.0025
     15 C          -2.9894   -0.0074    0.1563 C.ar    1  LIG1       -0.0356
     16 C          -0.8840    2.4702    1.1289 C.2     1  LIG1        0.0466
     17 C           1.4283   -1.8669    1.0767 C.ar    1  LIG1       -0.0159
     18 C          -1.2820   -2.4054    1.5781 C.ar    1  LIG1       -0.0542
     19 C           3.0952    1.1158   -0.0941 C.ar    1  LIG1        0.1278
     20 C           1.0245   -3.1671    1.3792 C.ar    1  LIG1        0.1208
     21 C          -3.2989   -1.1352   -0.6256 C.ar    1  LIG1       -0.0124
     22 C          -0.3275   -3.4243    1.6485 C.ar    1  LIG1       -0.0196
     23 C          -3.8862    1.0935    0.1311 C.ar    1  LIG1       -0.0543
     24 C           1.3786    0.7992   -1.7651 C.ar    1  LIG1       -0.0510
     25 C          -4.4836   -1.1461   -1.3358 C.ar    1  LIG1        0.1665
     26 C          -5.0654    1.0681   -0.6229 C.ar    1  LIG1       -0.0159
     27 C           4.0134    1.3777   -1.1208 C.ar    1  LIG1        0.0221
     28 C           2.3020    1.0602   -2.7808 C.ar    1  LIG1       -0.0194
     29 C          -5.3439   -0.0748   -1.3344 C.ar    1  LIG1        0.1662
     30 C           3.6151    1.3774   -2.4574 C.ar    1  LIG1        0.1236
     31 C           3.2186   -4.0678    1.1227 C.3     1  LIG1        0.0893
     32 C          -6.2049   -1.6429   -2.5389 C.3     1  LIG1        0.2332
     33 C           4.8322    1.0622    1.5541 C.3     1  LIG1        0.1126
     34 C           3.8375   -5.4214    0.7818 C.3     1  LIG1       -0.0215
     35 C           4.9742    0.7665    3.0442 C.3     1  LIG1        0.0783
     36 C           4.1489    2.3025   -4.5522 C.3     1  LIG1        0.0788
     37 C           3.3136   -5.9531   -0.5469 C.3     1  LIG1       -0.0622
     38 H           3.5862    2.0375    3.5148 H       1  LIG1        0.2095
     39 H          -0.9336    1.2642   -0.6360 H       1  LIG1        0.0379
     40 H           1.0868    1.0355    1.6356 H       1  LIG1        0.0405
     41 H          -2.0647    0.3863    2.0395 H       1  LIG1        0.0404
     42 H           2.4676   -1.6020    0.9326 H       1  LIG1        0.0657
     43 H          -2.3218   -2.6117    1.8126 H       1  LIG1        0.0622
     44 H          -2.6424   -1.9950   -0.6852 H       1  LIG1        0.0658
     45 H          -0.6381   -4.4297    1.9191 H       1  LIG1        0.0654
     46 H          -3.6482    1.9939    0.7005 H       1  LIG1        0.0622
     47 H           0.3627    0.5429   -2.0552 H       1  LIG1        0.0623
     48 H          -5.7310    1.9227   -0.6400 H       1  LIG1        0.0655
     49 H           5.0508    1.6106   -0.9094 H       1  LIG1        0.0691
     50 H           1.9631    1.0016   -3.8090 H       1  LIG1        0.0654
     51 H           3.7241   -3.6403    1.9962 H       1  LIG1        0.0696
     52 H           3.3551   -3.4067    0.2596 H       1  LIG1        0.0696
     53 H          -7.0094   -2.2849   -2.1599 H       1  LIG1        0.1166
     54 H          -6.2300   -1.6645   -3.6343 H       1  LIG1        0.1166
     55 H           5.2641    2.0449    1.3327 H       1  LIG1        0.0720
     56 H           5.3451    0.2735    0.9914 H       1  LIG1        0.0720
     57 H           3.6094   -6.1494    1.5685 H       1  LIG1        0.0295
     58 H           4.9263   -5.3180    0.7198 H       1  LIG1        0.0295
     59 H           4.4025   -0.1227    3.3278 H       1  LIG1        0.0591
     60 H           6.0260    0.6079    3.3002 H       1  LIG1        0.0591
     61 H           5.0289    2.6888   -5.0755 H       1  LIG1        0.0660
     62 H           3.4968    3.1530   -4.3239 H       1  LIG1        0.0660
     63 H           3.6512    1.5926   -5.2198 H       1  LIG1        0.0660
     64 H           2.2316   -6.1139   -0.5124 H       1  LIG1        0.0231
     65 H           3.7921   -6.9064   -0.7900 H       1  LIG1        0.0231
     66 H           3.5283   -5.2505   -1.3592 H       1  LIG1        0.0231
@<TRIPOS>BOND
     1     1    16   ar
     2     2    16   ar
     3     3    20    1
     4     3    31    1
     5     4    19    1
     6     4    33    1
     7     5    25    1
     8     5    32    1
     9     6    29    1
    10     6    32    1
    11     7    30    1
    12     7    36    1
    13     8    35    1
    14     9    10    1
    15     9    11    1
    16     9    16    1
    17    10    12    1
    18    10    14    1
    19    11    13    1
    20    11    15    1
    21    12    13   ar
    22    12    17   ar
    23    13    18   ar
    24    14    19   ar
    25    14    24   ar
    26    15    21   ar
    27    15    23   ar
    28    17    20   ar
    29    18    22   ar
    30    19    27   ar
    31    20    22   ar
    32    21    25   ar
    33    23    26   ar
    34    24    28   ar
    35    25    29   ar
    36    26    29   ar
    37    27    30   ar
    38    28    30   ar
    39    31    34    1
    40    33    35    1
    41    34    37    1
    42     8    38    1
    43     9    39    1
    44    10    40    1
    45    11    41    1
    46    17    42    1
    47    18    43    1
    48    21    44    1
    49    22    45    1
    50    23    46    1
    51    24    47    1
    52    26    48    1
    53    27    49    1
    54    28    50    1
    55    31    51    1
    56    31    52    1
    57    32    53    1
    58    32    54    1
    59    33    55    1
    60    33    56    1
    61    34    57    1
    62    34    58    1
    63    35    59    1
    64    35    60    1
    65    36    61    1
    66    36    62    1
    67    36    63    1
    68    37    64    1
    69    37    65    1
    70    37    66    1
@<TRIPOS>MOLECULE
178103
 66 70 0 0 0
SMALL
GASTEIGER

@<TRIPOS>ATOM
      1 O          -0.3893    3.5103    0.1760 O.co2   1  LIG1       -0.5495
      2 O          -1.0525    2.6451    2.1726 O.co2   1  LIG1       -0.5495
      3 O           1.7425   -4.2218    1.6508 O.3     1  LIG1       -0.4920
      4 O           3.1718    2.1746    0.9275 O.3     1  LIG1       -0.4893
      5 O          -6.6070    0.6179    0.2408 O.3     1  LIG1       -0.4526
      6 O          -6.5051   -0.2905   -1.9932 O.3     1  LIG1       -0.4526
      7 O           4.5698    1.3829   -3.5025 O.3     1  LIG1       -0.4950
      8 O           5.4487    3.6851    1.3472 O.3     1  LIG1       -0.3917
      9 C          -0.6738    1.1790    0.3392 C.3     1  LIG1        0.0203
     10 C           0.7386    0.6371    0.6827 C.3     1  LIG1        0.0218
     11 C          -1.7088    0.2045    0.9467 C.3     1  LIG1        0.0184
     12 C           0.4575   -0.8223    0.9808 C.ar    1  LIG1       -0.0320
     13 C          -0.9100   -1.0722    1.0900 C.ar    1  LIG1       -0.0353
     14 C           1.7452    0.8248   -0.4484 C.ar    1  LIG1        0.0025
     15 C          -2.9683    0.0586    0.1027 C.ar    1  LIG1       -0.0356
     16 C          -0.7194    2.5719    0.9574 C.2     1  LIG1        0.0466
     17 C           1.3909   -1.8357    1.1781 C.ar    1  LIG1       -0.0159
     18 C          -1.3707   -2.3505    1.3732 C.ar    1  LIG1       -0.0542
     19 C           2.8886    1.6171   -0.2917 C.ar    1  LIG1        0.1278
     20 C           0.9406   -3.1269    1.4582 C.ar    1  LIG1        0.1208
     21 C          -4.2066    0.4556    0.6406 C.ar    1  LIG1       -0.0124
     22 C          -0.4380   -3.3799    1.5360 C.ar    1  LIG1       -0.0196
     23 C          -2.9273   -0.4707   -1.2102 C.ar    1  LIG1       -0.0543
     24 C           1.5486    0.2041   -1.6960 C.ar    1  LIG1       -0.0510
     25 C          -5.3364    0.2989   -0.1323 C.ar    1  LIG1        0.1665
     26 C          -4.0894   -0.6133   -1.9748 C.ar    1  LIG1       -0.0159
     27 C           3.8136    1.7611   -1.3337 C.ar    1  LIG1        0.0221
     28 C           2.4638    0.3625   -2.7437 C.ar    1  LIG1       -0.0194
     29 C          -5.2819   -0.2201   -1.4037 C.ar    1  LIG1        0.1662
     30 C           3.5989    1.1487   -2.5673 C.ar    1  LIG1        0.1236
     31 C           3.1009   -3.9731    2.0193 C.3     1  LIG1        0.0893
     32 C          -7.3321    0.2715   -0.9538 C.3     1  LIG1        0.2332
     33 C           3.0634    3.6116    0.8944 C.3     1  LIG1        0.1126
     34 C           4.0068   -3.9921    0.7901 C.3     1  LIG1       -0.0215
     35 C           4.1734    4.1606    1.7889 C.3     1  LIG1        0.0783
     36 C           4.3017    0.9268   -4.8215 C.3     1  LIG1        0.0788
     37 C           5.4416   -3.6513    1.1504 C.3     1  LIG1       -0.0622
     38 H           5.3234    2.7233    1.2239 H       1  LIG1        0.2095
     39 H          -0.8171    1.2787   -0.7451 H       1  LIG1        0.0379
     40 H           1.1196    1.0747    1.6145 H       1  LIG1        0.0405
     41 H          -1.9984    0.4939    1.9646 H       1  LIG1        0.0404
     42 H           2.4424   -1.5892    1.0949 H       1  LIG1        0.0657
     43 H          -2.4331   -2.5486    1.4713 H       1  LIG1        0.0622
     44 H          -4.2725    0.8832    1.6369 H       1  LIG1        0.0658
     45 H          -0.7858   -4.3868    1.7493 H       1  LIG1        0.0654
     46 H          -1.9719   -0.7736   -1.6387 H       1  LIG1        0.0622
     47 H           0.6702   -0.4170   -1.8565 H       1  LIG1        0.0623
     48 H          -4.0544   -1.0145   -2.9792 H       1  LIG1        0.0655
     49 H           4.7066    2.3623   -1.1863 H       1  LIG1        0.0691
     50 H           2.2564   -0.1476   -3.6778 H       1  LIG1        0.0654
     51 H           3.3947   -4.7945    2.6841 H       1  LIG1        0.0696
     52 H           3.2108   -3.0581    2.6140 H       1  LIG1        0.0696
     53 H          -7.8200    1.1732   -1.3428 H       1  LIG1        0.1166
     54 H          -8.1071   -0.4588   -0.6927 H       1  LIG1        0.1166
     55 H           2.0880    3.9048    1.2900 H       1  LIG1        0.0720
     56 H           3.1766    4.0200   -0.1171 H       1  LIG1        0.0720
     57 H           3.6446   -3.2919    0.0298 H       1  LIG1        0.0295
     58 H           3.9642   -4.9834    0.3232 H       1  LIG1        0.0295
     59 H           4.1891    5.2523    1.7726 H       1  LIG1        0.0591
     60 H           4.0429    3.8215    2.8203 H       1  LIG1        0.0591
     61 H           5.1109    1.2797   -5.4674 H       1  LIG1        0.0660
     62 H           3.3644    1.3426   -5.2070 H       1  LIG1        0.0660
     63 H           4.2959   -0.1672   -4.8618 H       1  LIG1        0.0660
     64 H           5.5074   -2.6497    1.5888 H       1  LIG1        0.0231
     65 H           6.0734   -3.6712    0.2566 H       1  LIG1        0.0231
     66 H           5.8476   -4.3689    1.8707 H       1  LIG1        0.0231
@<TRIPOS>BOND
     1     1    16   ar
     2     2    16   ar
     3     3    20    1
     4     3    31    1
     5     4    19    1
     6     4    33    1
     7     5    25    1
     8     5    32    1
     9     6    29    1
    10     6    32    1
    11     7    30    1
    12     7    36    1
    13     8    35    1
    14     9    10    1
    15     9    11    1
    16     9    16    1
    17    10    12    1
    18    10    14    1
    19    11    13    1
    20    11    15    1
    21    12    13   ar
    22    12    17   ar
    23    13    18   ar
    24    14    19   ar
    25    14    24   ar
    26    15    21   ar
    27    15    23   ar
    28    17    20   ar
    29    18    22   ar
    30    19    27   ar
    31    20    22   ar
    32    21    25   ar
    33    23    26   ar
    34    24    28   ar
    35    25    29   ar
    36    26    29   ar
    37    27    30   ar
    38    28    30   ar
    39    31    34    1
    40    33    35    1
    41    34    37    1
    42     8    38    1
    43     9    39    1
    44    10    40    1
    45    11    41    1
    46    17    42    1
    47    18    43    1
    48    21    44    1
    49    22    45    1
    50    23    46    1
    51    24    47    1
    52    26    48    1
    53    27    49    1
    54    28    50    1
    55    31    51    1
    56    31    52    1
    57    32    53    1
    58    32    54    1
    59    33    55    1
    60    33    56    1
    61    34    57    1
    62    34    58    1
    63    35    59    1
    64    35    60    1
    65    36    61    1
    66    36    62    1
    67    36    63    1
    68    37    64    1
    69    37    65    1
    70    37    66    1
@<TRIPOS>MOLECULE
178103
 66 70 0 0 0
SMALL
GASTEIGER

@<TRIPOS>ATOM
      1 O          -0.6832    2.6173    2.2283 O.co2   1  LIG1       -0.5495
      2 O          -1.6907    3.3021    0.3089 O.co2   1  LIG1       -0.5495
      3 O           1.8477   -4.1625    1.6713 O.3     1  LIG1       -0.4920
      4 O           2.0745    3.0977    0.2575 O.3     1  LIG1       -0.4893
      5 O          -6.4223    1.2440   -0.2153 O.3     1  LIG1       -0.4526
      6 O          -6.4199   -0.1821   -2.1619 O.3     1  LIG1       -0.4526
      7 O           4.4279    1.5977   -3.5920 O.3     1  LIG1       -0.4950
      8 O           1.3075    6.6834    0.2549 O.3     1  LIG1       -0.3917
      9 C          -0.7299    1.1581    0.3488 C.3     1  LIG1        0.0203
     10 C           0.7015    0.6649    0.6592 C.3     1  LIG1        0.0218
     11 C          -1.7327    0.1563    0.9695 C.3     1  LIG1        0.0184
     12 C           0.4708   -0.7925    1.0225 C.ar    1  LIG1       -0.0320
     13 C          -0.8874   -1.0814    1.1589 C.ar    1  LIG1       -0.0353
     14 C           1.6519    0.8966   -0.5228 C.ar    1  LIG1        0.0025
     15 C          -2.9743   -0.0168    0.1025 C.ar    1  LIG1       -0.0356
     16 C          -1.0509    2.4811    1.0271 C.2     1  LIG1        0.0466
     17 C           1.4343   -1.7754    1.2430 C.ar    1  LIG1       -0.0159
     18 C          -1.3073   -2.3579    1.5096 C.ar    1  LIG1       -0.0542
     19 C           2.3266    2.1211   -0.6701 C.ar    1  LIG1        0.1278
     20 C           1.0206   -3.0796    1.5237 C.ar    1  LIG1        0.1208
     21 C          -4.1279    0.7220    0.4257 C.ar    1  LIG1       -0.0124
     22 C          -0.3465   -3.3592    1.6726 C.ar    1  LIG1       -0.0196
     23 C          -2.9841   -0.8373   -1.0516 C.ar    1  LIG1       -0.0543
     24 C           1.8541   -0.0831   -1.5141 C.ar    1  LIG1       -0.0510
     25 C          -5.2355    0.6002   -0.3853 C.ar    1  LIG1        0.1665
     26 C          -4.1258   -0.9470   -1.8532 C.ar    1  LIG1       -0.0159
     27 C           3.2542    2.3001   -1.7061 C.ar    1  LIG1        0.0221
     28 C           2.7693    0.1068   -2.5557 C.ar    1  LIG1       -0.0194
     29 C          -5.2346   -0.2134   -1.4936 C.ar    1  LIG1        0.1662
     30 C           3.4880    1.2937   -2.6445 C.ar    1  LIG1        0.1236
     31 C           3.1992   -3.9864    1.2433 C.3     1  LIG1        0.0893
     32 C          -7.1364    0.7974   -1.3817 C.3     1  LIG1        0.2332
     33 C           2.0488    4.4317   -0.2594 C.3     1  LIG1        0.1126
     34 C           3.8365   -5.3677    1.1233 C.3     1  LIG1       -0.0215
     35 C           1.1525    5.3056    0.6100 C.3     1  LIG1        0.0783
     36 C           4.7558    0.5709   -4.5178 C.3     1  LIG1        0.0788
     37 C           5.2939   -5.2817    0.7053 C.3     1  LIG1       -0.0622
     38 H           0.5298    7.1223    0.6434 H       1  LIG1        0.2095
     39 H          -0.8801    1.2521   -0.7362 H       1  LIG1        0.0379
     40 H           1.1325    1.1355    1.5515 H       1  LIG1        0.0405
     41 H          -2.0532    0.4547    1.9778 H       1  LIG1        0.0404
     42 H           2.4803   -1.5016    1.1696 H       1  LIG1        0.0657
     43 H          -2.3617   -2.5767    1.6450 H       1  LIG1        0.0622
     44 H          -4.1363    1.4040    1.2716 H       1  LIG1        0.0658
     45 H          -0.6633   -4.3691    1.9182 H       1  LIG1        0.0654
     46 H          -2.0863   -1.3825   -1.3352 H       1  LIG1        0.0622
     47 H           1.3003   -1.0186   -1.4817 H       1  LIG1        0.0623
     48 H          -4.1306   -1.5721   -2.7374 H       1  LIG1        0.0655
     49 H           3.8163    3.2250   -1.7874 H       1  LIG1        0.0691
     50 H           2.8922   -0.6962   -3.2734 H       1  LIG1        0.0654
     51 H           3.7400   -3.3863    1.9842 H       1  LIG1        0.0696
     52 H           3.2402   -3.4962    0.2624 H       1  LIG1        0.0696
     53 H          -7.3499    1.6649   -2.0180 H       1  LIG1        0.1166
     54 H          -8.0881    0.3585   -1.0611 H       1  LIG1        0.1166
     55 H           1.6714    4.4679   -1.2905 H       1  LIG1        0.0720
     56 H           3.0672    4.8381   -0.2564 H       1  LIG1        0.0720
     57 H           3.2767   -5.9633    0.3919 H       1  LIG1        0.0295
     58 H           3.7510   -5.9020    2.0767 H       1  LIG1        0.0295
     59 H           0.1060    5.0354    0.4642 H       1  LIG1        0.0591
     60 H           1.3901    5.1860    1.6712 H       1  LIG1        0.0591
     61 H           5.5356    0.9566   -5.1815 H       1  LIG1        0.0660
     62 H           3.8928    0.3072   -5.1376 H       1  LIG1        0.0660
     63 H           5.1604   -0.3089   -4.0062 H       1  LIG1        0.0660
     64 H           5.3993   -4.7556   -0.2490 H       1  LIG1        0.0231
     65 H           5.7151   -6.2849    0.5880 H       1  LIG1        0.0231
     66 H           5.8852   -4.7503    1.4576 H       1  LIG1        0.0231
@<TRIPOS>BOND
     1     1    16   ar
     2     2    16   ar
     3     3    20    1
     4     3    31    1
     5     4    19    1
     6     4    33    1
     7     5    25    1
     8     5    32    1
     9     6    29    1
    10     6    32    1
    11     7    30    1
    12     7    36    1
    13     8    35    1
    14     9    10    1
    15     9    11    1
    16     9    16    1
    17    10    12    1
    18    10    14    1
    19    11    13    1
    20    11    15    1
    21    12    13   ar
    22    12    17   ar
    23    13    18   ar
    24    14    19   ar
    25    14    24   ar
    26    15    21   ar
    27    15    23   ar
    28    17    20   ar
    29    18    22   ar
    30    19    27   ar
    31    20    22   ar
    32    21    25   ar
    33    23    26   ar
    34    24    28   ar
    35    25    29   ar
    36    26    29   ar
    37    27    30   ar
    38    28    30   ar
    39    31    34    1
    40    33    35    1
    41    34    37    1
    42     8    38    1
    43     9    39    1
    44    10    40    1
    45    11    41    1
    46    17    42    1
    47    18    43    1
    48    21    44    1
    49    22    45    1
    50    23    46    1
    51    24    47    1
    52    26    48    1
    53    27    49    1
    54    28    50    1
    55    31    51    1
    56    31    52    1
    57    32    53    1
    58    32    54    1
    59    33    55    1
    60    33    56    1
    61    34    57    1
    62    34    58    1
    63    35    59    1
    64    35    60    1
    65    36    61    1
    66    36    62    1
    67    36    63    1
    68    37    64    1
    69    37    65    1
    70    37    66    1
@<TRIPOS>MOLECULE
178103
 66 70 0 0 0
SMALL
GASTEIGER

@<TRIPOS>ATOM
      1 O          -0.6328    2.4672    2.1172 O.co2   1  LIG1       -0.5495
      2 O          -1.0136    3.2695    0.0243 O.co2   1  LIG1       -0.5495
      3 O           1.6384   -4.3414    1.9650 O.3     1  LIG1       -0.4920
      4 O           1.0097   -1.0946   -1.8124 O.3     1  LIG1       -0.4893
      5 O          -4.9346   -2.1532   -2.2266 O.3     1  LIG1       -0.4526
      6 O          -6.4679   -0.2899   -2.1464 O.3     1  LIG1       -0.4526
      7 O           4.7351    1.5377   -3.2158 O.3     1  LIG1       -0.4950
      8 O           0.7159   -4.3225   -3.4841 O.3     1  LIG1       -0.3917
      9 C          -0.6686    0.9503    0.2861 C.3     1  LIG1        0.0203
     10 C           0.7097    0.3732    0.6684 C.3     1  LIG1        0.0218
     11 C          -1.7446    0.0631    0.9510 C.3     1  LIG1        0.0184
     12 C           0.3855   -1.0635    1.0135 C.ar    1  LIG1       -0.0320
     13 C          -0.9905   -1.2249    1.2135 C.ar    1  LIG1       -0.0353
     14 C           1.7711    0.6369   -0.3929 C.ar    1  LIG1        0.0025
     15 C          -3.0036   -0.0370    0.0910 C.ar    1  LIG1       -0.0356
     16 C          -0.7750    2.3568    0.8664 C.2     1  LIG1        0.0466
     17 C           1.2690   -2.1089    1.2651 C.ar    1  LIG1       -0.0159
     18 C          -1.4973   -2.4191    1.7133 C.ar    1  LIG1       -0.0542
     19 C           1.9151   -0.0938   -1.5851 C.ar    1  LIG1        0.1278
     20 C           0.7520   -3.3320    1.6926 C.ar    1  LIG1        0.1208
     21 C          -3.2973   -1.1428   -0.7264 C.ar    1  LIG1       -0.0124
     22 C          -0.6191   -3.4778    1.9488 C.ar    1  LIG1       -0.0196
     23 C          -3.9079    1.0559    0.1066 C.ar    1  LIG1       -0.0543
     24 C           2.6277    1.7337   -0.1752 C.ar    1  LIG1       -0.0510
     25 C          -4.4850   -1.1436   -1.4309 C.ar    1  LIG1        0.1665
     26 C          -5.0929    1.0389   -0.6368 C.ar    1  LIG1       -0.0159
     27 C           2.9231    0.2544   -2.4963 C.ar    1  LIG1        0.0221
     28 C           3.6293    2.0720   -1.0874 C.ar    1  LIG1       -0.0194
     29 C          -5.3593   -0.0843   -1.3846 C.ar    1  LIG1        0.1662
     30 C           3.7912    1.3222   -2.2463 C.ar    1  LIG1        0.1236
     31 C           1.3911   -5.5103    1.1757 C.3     1  LIG1        0.0893
     32 C          -6.1993   -1.6107   -2.6552 C.3     1  LIG1        0.2332
     33 C           1.3780   -2.1112   -2.7380 C.3     1  LIG1        0.1126
     34 C           2.1294   -6.6918    1.8018 C.3     1  LIG1       -0.0215
     35 C           0.3991   -3.2679   -2.5790 C.3     1  LIG1        0.0783
     36 C           5.7078    2.5372   -2.9391 C.3     1  LIG1        0.0788
     37 C           3.6414   -6.5438    1.7228 C.3     1  LIG1       -0.0622
     38 H           0.0173   -4.9897   -3.3746 H       1  LIG1        0.2095
     39 H          -0.7983    0.9779   -0.8049 H       1  LIG1        0.0379
     40 H           1.0764    0.7999    1.6129 H       1  LIG1        0.0405
     41 H          -2.0504    0.4401    1.9366 H       1  LIG1        0.0404
     42 H           2.3375   -1.9710    1.1400 H       1  LIG1        0.0657
     43 H          -2.5551   -2.5201    1.9347 H       1  LIG1        0.0622
     44 H          -2.6218   -1.9851   -0.8119 H       1  LIG1        0.0658
     45 H          -1.0057   -4.4013    2.3669 H       1  LIG1        0.0654
     46 H          -3.6680    1.9417    0.6975 H       1  LIG1        0.0622
     47 H           2.4927    2.3531    0.7124 H       1  LIG1        0.0623
     48 H          -5.7687    1.8850   -0.6231 H       1  LIG1        0.0655
     49 H           3.0422   -0.2813   -3.4319 H       1  LIG1        0.0691
     50 H           4.2426    2.9377   -0.8642 H       1  LIG1        0.0654
     51 H           1.7446   -5.3362    0.1521 H       1  LIG1        0.0696
     52 H           0.3256   -5.7631    1.1357 H       1  LIG1        0.0696
     53 H          -6.9987   -2.2823   -2.3195 H       1  LIG1        0.1166
     54 H          -6.2122   -1.5748   -3.7504 H       1  LIG1        0.1166
     55 H           2.3964   -2.4748   -2.5501 H       1  LIG1        0.0720
     56 H           1.3233   -1.7318   -3.7653 H       1  LIG1        0.0720
     57 H           1.8336   -7.6162    1.2938 H       1  LIG1        0.0295
     58 H           1.8429   -6.7840    2.8562 H       1  LIG1        0.0295
     59 H           0.4320   -3.6602   -1.5574 H       1  LIG1        0.0591
     60 H          -0.6249   -2.9296   -2.7705 H       1  LIG1        0.0591
     61 H           6.4278    2.5397   -3.7630 H       1  LIG1        0.0660
     62 H           6.2588    2.3120   -2.0194 H       1  LIG1        0.0660
     63 H           5.2505    3.5311   -2.8940 H       1  LIG1        0.0660
     64 H           3.9733   -6.4938    0.6811 H       1  LIG1        0.0231
     65 H           4.1282   -7.4049    2.1918 H       1  LIG1        0.0231
     66 H           3.9828   -5.6409    2.2380 H       1  LIG1        0.0231
@<TRIPOS>BOND
     1     1    16   ar
     2     2    16   ar
     3     3    20    1
     4     3    31    1
     5     4    19    1
     6     4    33    1
     7     5    25    1
     8     5    32    1
     9     6    29    1
    10     6    32    1
    11     7    30    1
    12     7    36    1
    13     8    35    1
    14     9    10    1
    15     9    11    1
    16     9    16    1
    17    10    12    1
    18    10    14    1
    19    11    13    1
    20    11    15    1
    21    12    13   ar
    22    12    17   ar
    23    13    18   ar
    24    14    19   ar
    25    14    24   ar
    26    15    21   ar
    27    15    23   ar
    28    17    20   ar
    29    18    22   ar
    30    19    27   ar
    31    20    22   ar
    32    21    25   ar
    33    23    26   ar
    34    24    28   ar
    35    25    29   ar
    36    26    29   ar
    37    27    30   ar
    38    28    30   ar
    39    31    34    1
    40    33    35    1
    41    34    37    1
    42     8    38    1
    43     9    39    1
    44    10    40    1
    45    11    41    1
    46    17    42    1
    47    18    43    1
    48    21    44    1
    49    22    45    1
    50    23    46    1
    51    24    47    1
    52    26    48    1
    53    27    49    1
    54    28    50    1
    55    31    51    1
    56    31    52    1
    57    32    53    1
    58    32    54    1
    59    33    55    1
    60    33    56    1
    61    34    57    1
    62    34    58    1
    63    35    59    1
    64    35    60    1
    65    36    61    1
    66    36    62    1
    67    36    63    1
    68    37    64    1
    69    37    65    1
    70    37    66    1
@<TRIPOS>MOLECULE
178103
 66 70 0 0 0
SMALL
GASTEIGER

@<TRIPOS>ATOM
      1 O          -0.6830    2.5417    2.0904 O.co2   1  LIG1       -0.5495
      2 O          -1.1326    3.3523    0.0140 O.co2   1  LIG1       -0.5495
      3 O           1.7410   -4.2405    1.9256 O.3     1  LIG1       -0.4920
      4 O           0.9696   -0.9501   -1.8886 O.3     1  LIG1       -0.4893
      5 O          -6.0950    1.7987   -0.7425 O.3     1  LIG1       -0.4526
      6 O          -6.4019   -0.0344   -2.2804 O.3     1  LIG1       -0.4526
      7 O           4.7100    1.6460   -3.3107 O.3     1  LIG1       -0.4950
      8 O           0.7674   -4.2510   -3.4335 O.3     1  LIG1       -0.3917
      9 C          -0.7041    1.0462    0.2406 C.3     1  LIG1        0.0203
     10 C           0.6987    0.5215    0.5988 C.3     1  LIG1        0.0218
     11 C          -1.7378    0.1098    0.9094 C.3     1  LIG1        0.0184
     12 C           0.4330   -0.9230    0.9552 C.ar    1  LIG1       -0.0320
     13 C          -0.9310   -1.1486    1.1547 C.ar    1  LIG1       -0.0353
     14 C           1.7397    0.7932   -0.4818 C.ar    1  LIG1        0.0025
     15 C          -2.9881   -0.0268    0.0443 C.ar    1  LIG1       -0.0356
     16 C          -0.8507    2.4396    0.8420 C.2     1  LIG1        0.0466
     17 C           1.3739   -1.9204    1.1949 C.ar    1  LIG1       -0.0159
     18 C          -1.3740   -2.3780    1.6230 C.ar    1  LIG1       -0.0542
     19 C           1.8741    0.0545   -1.6710 C.ar    1  LIG1        0.1278
     20 C           0.9364   -3.1689    1.6386 C.ar    1  LIG1        0.1208
     21 C          -3.9644    0.9861    0.1253 C.ar    1  LIG1       -0.0124
     22 C          -0.4341   -3.3895    1.8499 C.ar    1  LIG1       -0.0196
     23 C          -3.1758   -1.0825   -0.8799 C.ar    1  LIG1       -0.0543
     24 C           2.6045    1.8842   -0.2717 C.ar    1  LIG1       -0.0510
     25 C          -5.0744    0.9006   -0.6882 C.ar    1  LIG1        0.1665
     26 C          -4.3215   -1.1538   -1.6812 C.ar    1  LIG1       -0.0159
     27 C           2.8798    0.3917   -2.5886 C.ar    1  LIG1        0.0221
     28 C           3.6084    2.2067   -1.1869 C.ar    1  LIG1       -0.0194
     29 C          -5.2492   -0.1433   -1.5646 C.ar    1  LIG1        0.1662
     30 C           3.7611    1.4489   -2.3425 C.ar    1  LIG1        0.1236
     31 C           3.1435   -4.0572    1.7288 C.3     1  LIG1        0.0893
     32 C          -6.8847    1.2407   -1.8077 C.3     1  LIG1        0.2332
     33 C           1.3633   -1.9961   -2.7719 C.3     1  LIG1        0.1126
     34 C           3.8798   -5.2782    2.2754 C.3     1  LIG1       -0.0215
     35 C           0.4264   -3.1786   -2.5584 C.3     1  LIG1        0.0783
     36 C           5.7166    2.6075   -3.0206 C.3     1  LIG1        0.0788
     37 C           3.7533   -5.3844    3.7894 C.3     1  LIG1       -0.0622
     38 H           0.1587   -4.9780   -3.2170 H       1  LIG1        0.2095
     39 H          -0.8461    1.0844   -0.8474 H       1  LIG1        0.0379
     40 H           1.0708    0.9654    1.5334 H       1  LIG1        0.0405
     41 H          -2.0528    0.4683    1.8988 H       1  LIG1        0.0404
     42 H           2.4193   -1.6865    1.0382 H       1  LIG1        0.0657
     43 H          -2.4267   -2.5480    1.8218 H       1  LIG1        0.0622
     44 H          -3.8312    1.8396    0.7857 H       1  LIG1        0.0658
     45 H          -0.7692   -4.3565    2.2162 H       1  LIG1        0.0654
     46 H          -2.4137   -1.8496   -0.9931 H       1  LIG1        0.0622
     47 H           2.4795    2.5060    0.6154 H       1  LIG1        0.0623
     48 H          -4.4622   -1.9640   -2.3856 H       1  LIG1        0.0655
     49 H           2.9893   -0.1490   -3.5225 H       1  LIG1        0.0691
     50 H           4.2331    3.0650   -0.9684 H       1  LIG1        0.0654
     51 H           3.5043   -3.1660    2.2558 H       1  LIG1        0.0696
     52 H           3.3498   -3.9631    0.6558 H       1  LIG1        0.0696
     53 H          -6.8925    1.9454   -2.6482 H       1  LIG1        0.1166
     54 H          -7.9129    1.1136   -1.4507 H       1  LIG1        0.1166
     55 H           2.3937   -2.3210   -2.5776 H       1  LIG1        0.0720
     56 H           1.2919   -1.6606   -3.8134 H       1  LIG1        0.0720
     57 H           4.9403   -5.2126    2.0080 H       1  LIG1        0.0295
     58 H           3.4741   -6.1910    1.8243 H       1  LIG1        0.0295
     59 H           0.4895   -3.5341   -1.5249 H       1  LIG1        0.0591
     60 H          -0.6117   -2.8844   -2.7454 H       1  LIG1        0.0591
     61 H           6.4434    2.5869   -3.8384 H       1  LIG1        0.0660
     62 H           6.2510    2.3581   -2.0974 H       1  LIG1        0.0660
     63 H           5.2956    3.6170   -2.9745 H       1  LIG1        0.0660
     64 H           4.1515   -4.4889    4.2779 H       1  LIG1        0.0231
     65 H           4.3152   -6.2486    4.1570 H       1  LIG1        0.0231
     66 H           2.7091   -5.5048    4.0942 H       1  LIG1        0.0231
@<TRIPOS>BOND
     1     1    16   ar
     2     2    16   ar
     3     3    20    1
     4     3    31    1
     5     4    19    1
     6     4    33    1
     7     5    25    1
     8     5    32    1
     9     6    29    1
    10     6    32    1
    11     7    30    1
    12     7    36    1
    13     8    35    1
    14     9    10    1
    15     9    11    1
    16     9    16    1
    17    10    12    1
    18    10    14    1
    19    11    13    1
    20    11    15    1
    21    12    13   ar
    22    12    17   ar
    23    13    18   ar
    24    14    19   ar
    25    14    24   ar
    26    15    21   ar
    27    15    23   ar
    28    17    20   ar
    29    18    22   ar
    30    19    27   ar
    31    20    22   ar
    32    21    25   ar
    33    23    26   ar
    34    24    28   ar
    35    25    29   ar
    36    26    29   ar
    37    27    30   ar
    38    28    30   ar
    39    31    34    1
    40    33    35    1
    41    34    37    1
    42     8    38    1
    43     9    39    1
    44    10    40    1
    45    11    41    1
    46    17    42    1
    47    18    43    1
    48    21    44    1
    49    22    45    1
    50    23    46    1
    51    24    47    1
    52    26    48    1
    53    27    49    1
    54    28    50    1
    55    31    51    1
    56    31    52    1
    57    32    53    1
    58    32    54    1
    59    33    55    1
    60    33    56    1
    61    34    57    1
    62    34    58    1
    63    35    59    1
    64    35    60    1
    65    36    61    1
    66    36    62    1
    67    36    63    1
    68    37    64    1
    69    37    65    1
    70    37    66    1
@<TRIPOS>MOLECULE
178103
 66 70 0 0 0
SMALL
GASTEIGER

@<TRIPOS>ATOM
      1 O          -0.7905    2.4682    2.3840 O.co2   1  LIG1       -0.5495
      2 O          -1.0668    3.4409    0.3439 O.co2   1  LIG1       -0.5495
      3 O           1.8391   -4.2858    1.3962 O.3     1  LIG1       -0.4920
      4 O           3.4345    0.9741    1.2016 O.3     1  LIG1       -0.4893
      5 O          -4.8631   -2.0782   -2.1987 O.3     1  LIG1       -0.4526
      6 O          -6.4524   -0.2695   -2.0338 O.3     1  LIG1       -0.4526
      7 O           4.6050    1.6550   -3.3859 O.3     1  LIG1       -0.4950
      8 O           4.6164   -0.3646    3.4150 O.3     1  LIG1       -0.3917
      9 C          -0.7251    1.1145    0.4307 C.3     1  LIG1        0.0203
     10 C           0.7143    0.5926    0.6748 C.3     1  LIG1        0.0218
     11 C          -1.7185    0.1043    1.0557 C.3     1  LIG1        0.0184
     12 C           0.4740   -0.8803    0.9302 C.ar    1  LIG1       -0.0320
     13 C          -0.8731   -1.1440    1.1823 C.ar    1  LIG1       -0.0353
     14 C           1.7361    0.8543   -0.4359 C.ar    1  LIG1        0.0025
     15 C          -2.9882   -0.0071    0.2066 C.ar    1  LIG1       -0.0356
     16 C          -0.8623    2.4662    1.1227 C.2     1  LIG1        0.0466
     17 C           1.4300   -1.8890    1.0247 C.ar    1  LIG1       -0.0159
     18 C          -1.2751   -2.4148    1.5759 C.ar    1  LIG1       -0.0542
     19 C           3.0976    1.0681   -0.1246 C.ar    1  LIG1        0.1278
     20 C           1.0248   -3.1863    1.3392 C.ar    1  LIG1        0.1208
     21 C          -3.2543   -1.0843   -0.6578 C.ar    1  LIG1       -0.0124
     22 C          -0.3243   -3.4377    1.6299 C.ar    1  LIG1       -0.0196
     23 C          -3.9296    1.0526    0.2759 C.ar    1  LIG1       -0.0543
     24 C           1.3645    0.8386   -1.7919 C.ar    1  LIG1       -0.0510
     25 C          -4.4444   -1.0921   -1.3577 C.ar    1  LIG1        0.1665
     26 C          -5.1166    1.0318   -0.4661 C.ar    1  LIG1       -0.0159
     27 C           4.0195    1.3256   -1.1476 C.ar    1  LIG1        0.0221
     28 C           2.2897    1.1047   -2.8050 C.ar    1  LIG1       -0.0194
     29 C          -5.3508   -0.0639   -1.2631 C.ar    1  LIG1        0.1662
     30 C           3.6144    1.3742   -2.4822 C.ar    1  LIG1        0.1236
     31 C           3.2144   -4.0880    1.0659 C.3     1  LIG1        0.0893
     32 C          -6.1482   -1.5616   -2.5950 C.3     1  LIG1        0.2332
     33 C           4.7976    1.1914    1.5677 C.3     1  LIG1        0.1126
     34 C           3.8580   -5.4516    0.8251 C.3     1  LIG1       -0.0215
     35 C           4.9061    0.9933    3.0763 C.3     1  LIG1        0.0783
     36 C           4.1624    2.2445   -4.6034 C.3     1  LIG1        0.0788
     37 C           3.3337   -6.0991   -0.4499 C.3     1  LIG1       -0.0622
     38 H           3.6979   -0.5120    3.1112 H       1  LIG1        0.2095
     39 H          -0.9525    1.2483   -0.6317 H       1  LIG1        0.0379
     40 H           1.0985    1.0180    1.6108 H       1  LIG1        0.0405
     41 H          -2.0244    0.3795    2.0736 H       1  LIG1        0.0404
     42 H           2.4681   -1.6359    0.8512 H       1  LIG1        0.0657
     43 H          -2.3130   -2.6159    1.8221 H       1  LIG1        0.0622
     44 H          -2.5563   -1.9033   -0.7878 H       1  LIG1        0.0658
     45 H          -0.6345   -4.4421    1.9050 H       1  LIG1        0.0654
     46 H          -3.7176    1.9179    0.9076 H       1  LIG1        0.0622
     47 H           0.3408    0.6191   -2.0841 H       1  LIG1        0.0623
     48 H          -5.8189    1.8538   -0.4118 H       1  LIG1        0.0655
     49 H           5.0672    1.5071   -0.9368 H       1  LIG1        0.0691
     50 H           1.9407    1.0871   -3.8314 H       1  LIG1        0.0654
     51 H           3.7134   -3.5904    1.9056 H       1  LIG1        0.0696
     52 H           3.3331   -3.4868    0.1568 H       1  LIG1        0.0696
     53 H          -6.9227   -2.2709   -2.2787 H       1  LIG1        0.1166
     54 H          -6.1724   -1.4852   -3.6884 H       1  LIG1        0.1166
     55 H           5.0996    2.2128    1.3120 H       1  LIG1        0.0720
     56 H           5.4365    0.4564    1.0649 H       1  LIG1        0.0720
     57 H           3.6513   -6.1185    1.6698 H       1  LIG1        0.0295
     58 H           4.9438   -5.3327    0.7444 H       1  LIG1        0.0295
     59 H           5.9194    1.2176    3.4207 H       1  LIG1        0.0591
     60 H           4.1970    1.6309    3.6140 H       1  LIG1        0.0591
     61 H           5.0437    2.6273   -5.1276 H       1  LIG1        0.0660
     62 H           3.4903    3.0906   -4.4218 H       1  LIG1        0.0660
     63 H           3.6903    1.4977   -5.2498 H       1  LIG1        0.0660
     64 H           2.2534   -6.2695   -0.3965 H       1  LIG1        0.0231
     65 H           3.8213   -7.0655   -0.6143 H       1  LIG1        0.0231
     66 H           3.5365   -5.4666   -1.3205 H       1  LIG1        0.0231
@<TRIPOS>BOND
     1     1    16   ar
     2     2    16   ar
     3     3    20    1
     4     3    31    1
     5     4    19    1
     6     4    33    1
     7     5    25    1
     8     5    32    1
     9     6    29    1
    10     6    32    1
    11     7    30    1
    12     7    36    1
    13     8    35    1
    14     9    10    1
    15     9    11    1
    16     9    16    1
    17    10    12    1
    18    10    14    1
    19    11    13    1
    20    11    15    1
    21    12    13   ar
    22    12    17   ar
    23    13    18   ar
    24    14    19   ar
    25    14    24   ar
    26    15    21   ar
    27    15    23   ar
    28    17    20   ar
    29    18    22   ar
    30    19    27   ar
    31    20    22   ar
    32    21    25   ar
    33    23    26   ar
    34    24    28   ar
    35    25    29   ar
    36    26    29   ar
    37    27    30   ar
    38    28    30   ar
    39    31    34    1
    40    33    35    1
    41    34    37    1
    42     8    38    1
    43     9    39    1
    44    10    40    1
    45    11    41    1
    46    17    42    1
    47    18    43    1
    48    21    44    1
    49    22    45    1
    50    23    46    1
    51    24    47    1
    52    26    48    1
    53    27    49    1
    54    28    50    1
    55    31    51    1
    56    31    52    1
    57    32    53    1
    58    32    54    1
    59    33    55    1
    60    33    56    1
    61    34    57    1
    62    34    58    1
    63    35    59    1
    64    35    60    1
    65    36    61    1
    66    36    62    1
    67    36    63    1
    68    37    64    1
    69    37    65    1
    70    37    66    1
@<TRIPOS>MOLECULE
178103
 66 70 0 0 0
SMALL
GASTEIGER

@<TRIPOS>ATOM
      1 O          -0.7720    2.4818    2.1958 O.co2   1  LIG1       -0.5495
      2 O          -1.0419    3.3574    0.1137 O.co2   1  LIG1       -0.5495
      3 O           1.8053   -4.3130    1.6159 O.3     1  LIG1       -0.4920
      4 O           0.9685   -0.9330   -1.8377 O.3     1  LIG1       -0.4893
      5 O          -6.0799    1.7677   -0.6964 O.3     1  LIG1       -0.4526
      6 O          -6.3591   -0.0291   -2.2819 O.3     1  LIG1       -0.4526
      7 O           4.7056    1.6677   -3.2508 O.3     1  LIG1       -0.4950
      8 O           0.7675   -4.2232   -3.4089 O.3     1  LIG1       -0.3917
      9 C          -0.7056    1.0316    0.3149 C.3     1  LIG1        0.0203
     10 C           0.7042    0.5219    0.6660 C.3     1  LIG1        0.0218
     11 C          -1.7280    0.0650    0.9581 C.3     1  LIG1        0.0184
     12 C           0.4572   -0.9320    0.9952 C.ar    1  LIG1       -0.0320
     13 C          -0.9041   -1.1887    1.1711 C.ar    1  LIG1       -0.0353
     14 C           1.7374    0.8081   -0.4213 C.ar    1  LIG1        0.0025
     15 C          -2.9720   -0.0609    0.0815 C.ar    1  LIG1       -0.0356
     16 C          -0.8542    2.4165    0.9360 C.2     1  LIG1        0.0466
     17 C           1.4109   -1.9277    1.1825 C.ar    1  LIG1       -0.0159
     18 C          -1.3285   -2.4491    1.5706 C.ar    1  LIG1       -0.0542
     19 C           1.8713    0.0729   -1.6147 C.ar    1  LIG1        0.1278
     20 C           0.9871   -3.2184    1.4986 C.ar    1  LIG1        0.1208
     21 C          -3.9551    0.9439    0.1770 C.ar    1  LIG1       -0.0124
     22 C          -0.3780   -3.4664    1.7147 C.ar    1  LIG1       -0.0196
     23 C          -3.1437   -1.0938   -0.8714 C.ar    1  LIG1       -0.0543
     24 C           2.5993    1.9007   -0.2103 C.ar    1  LIG1       -0.0510
     25 C          -5.0553    0.8737   -0.6509 C.ar    1  LIG1        0.1665
     26 C          -4.2803   -1.1518   -1.6858 C.ar    1  LIG1       -0.0159
     27 C           2.8766    0.4127   -2.5312 C.ar    1  LIG1        0.0221
     28 C           3.6018    2.2263   -1.1262 C.ar    1  LIG1       -0.0194
     29 C          -5.2146   -0.1504   -1.5554 C.ar    1  LIG1        0.1662
     30 C           3.7563    1.4702   -2.2832 C.ar    1  LIG1        0.1236
     31 C           3.1506   -4.1344    1.1663 C.3     1  LIG1        0.0893
     32 C          -6.8530    1.2325   -1.7854 C.3     1  LIG1        0.2332
     33 C           1.3640   -1.9750   -2.7248 C.3     1  LIG1        0.1126
     34 C           3.8129   -5.5060    1.0799 C.3     1  LIG1       -0.0215
     35 C           0.4261   -3.1593   -2.5236 C.3     1  LIG1        0.0783
     36 C           5.7066    2.6357   -2.9650 C.3     1  LIG1        0.0788
     37 C           5.2692   -5.3977    0.6608 C.3     1  LIG1       -0.0622
     38 H           0.1561   -4.9511   -3.2012 H       1  LIG1        0.2095
     39 H          -0.8456    1.0906   -0.7737 H       1  LIG1        0.0379
     40 H           1.0742    0.9600    1.6038 H       1  LIG1        0.0405
     41 H          -2.0525    0.3912    1.9554 H       1  LIG1        0.0404
     42 H           2.4555   -1.6701    1.0553 H       1  LIG1        0.0657
     43 H          -2.3800   -2.6458    1.7544 H       1  LIG1        0.0622
     44 H          -3.8341    1.7809    0.8607 H       1  LIG1        0.0658
     45 H          -0.7021   -4.4648    1.9950 H       1  LIG1        0.0654
     46 H          -2.3748   -1.8520   -0.9978 H       1  LIG1        0.0622
     47 H           2.4744    2.5198    0.6780 H       1  LIG1        0.0623
     48 H          -4.4076   -1.9446   -2.4127 H       1  LIG1        0.0655
     49 H           2.9877   -0.1265   -3.4656 H       1  LIG1        0.0691
     50 H           4.2258    3.0854   -0.9071 H       1  LIG1        0.0654
     51 H           3.6934   -3.5047    1.8818 H       1  LIG1        0.0696
     52 H           3.1712   -3.6741    0.1705 H       1  LIG1        0.0696
     53 H          -6.8526    1.9573   -2.6089 H       1  LIG1        0.1166
     54 H          -7.8857    1.0931   -1.4453 H       1  LIG1        0.1166
     55 H           2.3936   -2.3017   -2.5283 H       1  LIG1        0.0720
     56 H           1.2968   -1.6335   -3.7648 H       1  LIG1        0.0720
     57 H           3.2662   -6.1285    0.3628 H       1  LIG1        0.0295
     58 H           3.7382   -6.0176    2.0461 H       1  LIG1        0.0295
     59 H           0.4890   -3.5261   -1.4955 H       1  LIG1        0.0591
     60 H          -0.6114   -2.8631   -2.7080 H       1  LIG1        0.0591
     61 H           6.4331    2.6155   -3.7824 H       1  LIG1        0.0660
     62 H           6.2427    2.3932   -2.0404 H       1  LIG1        0.0660
     63 H           5.2794    3.6425   -2.9231 H       1  LIG1        0.0660
     64 H           5.3644   -4.8904   -0.3051 H       1  LIG1        0.0231
     65 H           5.7132   -6.3927    0.5671 H       1  LIG1        0.0231
     66 H           5.8479   -4.8355    1.4015 H       1  LIG1        0.0231
@<TRIPOS>BOND
     1     1    16   ar
     2     2    16   ar
     3     3    20    1
     4     3    31    1
     5     4    19    1
     6     4    33    1
     7     5    25    1
     8     5    32    1
     9     6    29    1
    10     6    32    1
    11     7    30    1
    12     7    36    1
    13     8    35    1
    14     9    10    1
    15     9    11    1
    16     9    16    1
    17    10    12    1
    18    10    14    1
    19    11    13    1
    20    11    15    1
    21    12    13   ar
    22    12    17   ar
    23    13    18   ar
    24    14    19   ar
    25    14    24   ar
    26    15    21   ar
    27    15    23   ar
    28    17    20   ar
    29    18    22   ar
    30    19    27   ar
    31    20    22   ar
    32    21    25   ar
    33    23    26   ar
    34    24    28   ar
    35    25    29   ar
    36    26    29   ar
    37    27    30   ar
    38    28    30   ar
    39    31    34    1
    40    33    35    1
    41    34    37    1
    42     8    38    1
    43     9    39    1
    44    10    40    1
    45    11    41    1
    46    17    42    1
    47    18    43    1
    48    21    44    1
    49    22    45    1
    50    23    46    1
    51    24    47    1
    52    26    48    1
    53    27    49    1
    54    28    50    1
    55    31    51    1
    56    31    52    1
    57    32    53    1
    58    32    54    1
    59    33    55    1
    60    33    56    1
    61    34    57    1
    62    34    58    1
    63    35    59    1
    64    35    60    1
    65    36    61    1
    66    36    62    1
    67    36    63    1
    68    37    64    1
    69    37    65    1
    70    37    66    1
@<TRIPOS>MOLECULE
178103
 66 70 0 0 0
SMALL
GASTEIGER

@<TRIPOS>ATOM
      1 O          -0.2807    2.5692    2.2436 O.co2   1  LIG1       -0.5495
      2 O          -1.2553    3.3525    0.3443 O.co2   1  LIG1       -0.5495
      3 O           1.6629   -4.4277    1.4176 O.3     1  LIG1       -0.4920
      4 O           2.6956    2.4429    0.9565 O.3     1  LIG1       -0.4893
      5 O          -4.8290   -2.0388   -2.2086 O.3     1  LIG1       -0.4526
      6 O          -6.4117   -0.2236   -2.0516 O.3     1  LIG1       -0.4526
      7 O           4.6611    1.3560   -3.3995 O.3     1  LIG1       -0.4950
      8 O           2.4947    3.6930    3.3869 O.3     1  LIG1       -0.3917
      9 C          -0.6038    1.0857    0.3992 C.3     1  LIG1        0.0203
     10 C           0.7852    0.4877    0.6974 C.3     1  LIG1        0.0218
     11 C          -1.6634    0.1419    1.0251 C.3     1  LIG1        0.0184
     12 C           0.4699   -0.9681    0.9455 C.ar    1  LIG1       -0.0320
     13 C          -0.8894   -1.1520    1.1961 C.ar    1  LIG1       -0.0353
     14 C           1.8040    0.7630   -0.4040 C.ar    1  LIG1        0.0025
     15 C          -2.9281    0.0507    0.1648 C.ar    1  LIG1       -0.0356
     16 C          -0.7147    2.4592    1.0604 C.2     1  LIG1        0.0466
     17 C           1.3749   -2.0196    1.0518 C.ar    1  LIG1       -0.0159
     18 C          -1.3566   -2.3940    1.6089 C.ar    1  LIG1       -0.0542
     19 C           2.7749    1.7672   -0.2246 C.ar    1  LIG1        0.1278
     20 C           0.8975   -3.2915    1.3660 C.ar    1  LIG1        0.1208
     21 C          -3.2042   -1.0330   -0.6927 C.ar    1  LIG1       -0.0124
     22 C          -0.4599   -3.4663    1.6739 C.ar    1  LIG1       -0.0196
     23 C          -3.8610    1.1154    0.2242 C.ar    1  LIG1       -0.0543
     24 C           1.7876    0.0526   -1.6133 C.ar    1  LIG1       -0.0510
     25 C          -4.3994   -1.0438   -1.3846 C.ar    1  LIG1        0.1665
     26 C          -5.0541    1.0914   -0.5105 C.ar    1  LIG1       -0.0159
     27 C           3.7528    1.9928   -1.1988 C.ar    1  LIG1        0.0221
     28 C           2.7580    0.2911   -2.5875 C.ar    1  LIG1       -0.0194
     29 C          -5.3015   -0.0121   -1.2939 C.ar    1  LIG1        0.1662
     30 C           3.7528    1.2471   -2.3797 C.ar    1  LIG1        0.1236
     31 C           2.9173   -4.3555    0.7355 C.3     1  LIG1        0.0893
     32 C          -6.1153   -1.5225   -2.6018 C.3     1  LIG1        0.2332
     33 C           3.3635    3.6889    1.1095 C.3     1  LIG1        0.1126
     34 C           3.4394   -5.7703    0.4961 C.3     1  LIG1       -0.0215
     35 C           2.6505    4.4795    2.2067 C.3     1  LIG1        0.0783
     36 C           5.7317    2.2704   -3.2045 C.3     1  LIG1        0.0788
     37 C           3.7250   -6.5159    1.7904 C.3     1  LIG1       -0.0622
     38 H           1.7201    3.1140    3.1789 H       1  LIG1        0.2095
     39 H          -0.7619    1.1838   -0.6844 H       1  LIG1        0.0379
     40 H           1.1893    0.8286    1.6579 H       1  LIG1        0.0405
     41 H          -1.9603    0.4697    2.0312 H       1  LIG1        0.0404
     42 H           2.4277   -1.8186    0.8913 H       1  LIG1        0.0657
     43 H          -2.4042   -2.5382    1.8546 H       1  LIG1        0.0622
     44 H          -2.5136   -1.8577   -0.8170 H       1  LIG1        0.0658
     45 H          -0.8213   -4.4503    1.9589 H       1  LIG1        0.0654
     46 H          -3.6406    1.9885    0.8401 H       1  LIG1        0.0622
     47 H           1.0205   -0.6960   -1.7975 H       1  LIG1        0.0623
     48 H          -5.7516    1.9184   -0.4620 H       1  LIG1        0.0655
     49 H           4.5127    2.7408   -1.0201 H       1  LIG1        0.0691
     50 H           2.7387   -0.2791   -3.5119 H       1  LIG1        0.0654
     51 H           3.6346   -3.7893    1.3414 H       1  LIG1        0.0696
     52 H           2.8013   -3.8733   -0.2436 H       1  LIG1        0.0696
     53 H          -6.8901   -2.2262   -2.2723 H       1  LIG1        0.1166
     54 H          -6.1479   -1.4574   -3.6952 H       1  LIG1        0.1166
     55 H           3.3510    4.2835    0.1891 H       1  LIG1        0.0720
     56 H           4.3979    3.4848    1.4073 H       1  LIG1        0.0720
     57 H           4.3563   -5.7203   -0.1016 H       1  LIG1        0.0295
     58 H           2.6986   -6.3396   -0.0772 H       1  LIG1        0.0295
     59 H           3.2298    5.3718    2.4627 H       1  LIG1        0.0591
     60 H           1.6557    4.7962    1.8801 H       1  LIG1        0.0591
     61 H           6.3858    2.2099   -4.0795 H       1  LIG1        0.0660
     62 H           6.3285    2.0017   -2.3263 H       1  LIG1        0.0660
     63 H           5.3634    3.2991   -3.1343 H       1  LIG1        0.0660
     64 H           4.4672   -5.9831    2.3931 H       1  LIG1        0.0231
     65 H           4.1192   -7.5130    1.5696 H       1  LIG1        0.0231
     66 H           2.8170   -6.6378    2.3889 H       1  LIG1        0.0231
@<TRIPOS>BOND
     1     1    16   ar
     2     2    16   ar
     3     3    20    1
     4     3    31    1
     5     4    19    1
     6     4    33    1
     7     5    25    1
     8     5    32    1
     9     6    29    1
    10     6    32    1
    11     7    30    1
    12     7    36    1
    13     8    35    1
    14     9    10    1
    15     9    11    1
    16     9    16    1
    17    10    12    1
    18    10    14    1
    19    11    13    1
    20    11    15    1
    21    12    13   ar
    22    12    17   ar
    23    13    18   ar
    24    14    19   ar
    25    14    24   ar
    26    15    21   ar
    27    15    23   ar
    28    17    20   ar
    29    18    22   ar
    30    19    27   ar
    31    20    22   ar
    32    21    25   ar
    33    23    26   ar
    34    24    28   ar
    35    25    29   ar
    36    26    29   ar
    37    27    30   ar
    38    28    30   ar
    39    31    34    1
    40    33    35    1
    41    34    37    1
    42     8    38    1
    43     9    39    1
    44    10    40    1
    45    11    41    1
    46    17    42    1
    47    18    43    1
    48    21    44    1
    49    22    45    1
    50    23    46    1
    51    24    47    1
    52    26    48    1
    53    27    49    1
    54    28    50    1
    55    31    51    1
    56    31    52    1
    57    32    53    1
    58    32    54    1
    59    33    55    1
    60    33    56    1
    61    34    57    1
    62    34    58    1
    63    35    59    1
    64    35    60    1
    65    36    61    1
    66    36    62    1
    67    36    63    1
    68    37    64    1
    69    37    65    1
    70    37    66    1
@<TRIPOS>MOLECULE
178103
 66 70 0 0 0
SMALL
GASTEIGER

@<TRIPOS>ATOM
      1 O          -0.1001    3.4072    0.3793 O.co2   1  LIG1       -0.5495
      2 O          -1.3972    2.6631    2.0902 O.co2   1  LIG1       -0.5495
      3 O           1.8176   -4.3014    1.4346 O.3     1  LIG1       -0.4920
      4 O           3.3539    1.6048    1.1834 O.3     1  LIG1       -0.4893
      5 O          -4.7861   -2.0287   -2.2797 O.3     1  LIG1       -0.4526
      6 O          -6.4290   -0.2771   -2.0369 O.3     1  LIG1       -0.4526
      7 O           4.6000    1.4686   -3.4083 O.3     1  LIG1       -0.4950
      8 O           4.4199    2.2135    3.7119 O.3     1  LIG1       -0.3917
      9 C          -0.6840    1.1196    0.4240 C.3     1  LIG1        0.0203
     10 C           0.7444    0.5896    0.7208 C.3     1  LIG1        0.0218
     11 C          -1.6936    0.1199    1.0421 C.3     1  LIG1        0.0184
     12 C           0.4917   -0.8792    0.9888 C.ar    1  LIG1       -0.0320
     13 C          -0.8636   -1.1370    1.1909 C.ar    1  LIG1       -0.0353
     14 C           1.7630    0.8108   -0.3945 C.ar    1  LIG1        0.0025
     15 C          -2.9575    0.0099    0.1869 C.ar    1  LIG1       -0.0356
     16 C          -0.7318    2.5225    1.0292 C.2     1  LIG1        0.0466
     17 C           1.4419   -1.8924    1.1014 C.ar    1  LIG1       -0.0159
     18 C          -1.2855   -2.4085    1.5577 C.ar    1  LIG1       -0.0542
     19 C           3.0337    1.3488   -0.1267 C.ar    1  LIG1        0.1278
     20 C           1.0166   -3.1915    1.3791 C.ar    1  LIG1        0.1208
     21 C          -3.1945   -1.0412   -0.7180 C.ar    1  LIG1       -0.0124
     22 C          -0.3422   -3.4376    1.6283 C.ar    1  LIG1       -0.0196
     23 C          -3.9278    1.0378    0.3010 C.ar    1  LIG1       -0.0543
     24 C           1.4594    0.4566   -1.7219 C.ar    1  LIG1       -0.0510
     25 C          -4.3889   -1.0593   -1.4094 C.ar    1  LIG1        0.1665
     26 C          -5.1185    1.0087   -0.4337 C.ar    1  LIG1       -0.0159
     27 C           3.9564    1.5324   -1.1652 C.ar    1  LIG1        0.0221
     28 C           2.3739    0.6649   -2.7579 C.ar    1  LIG1       -0.0194
     29 C          -5.3262   -0.0635   -1.2703 C.ar    1  LIG1        0.1662
     30 C           3.6205    1.2197   -2.4833 C.ar    1  LIG1        0.1236
     31 C           3.1815   -4.1287    1.0495 C.3     1  LIG1        0.0893
     32 C          -6.0953   -1.5434   -2.6380 C.3     1  LIG1        0.2332
     33 C           4.1097    2.8069    1.3836 C.3     1  LIG1        0.1126
     34 C           3.8078   -5.4994    0.7988 C.3     1  LIG1       -0.0215
     35 C           3.9334    3.2356    2.8375 C.3     1  LIG1        0.0783
     36 C           4.1570    1.5830   -4.7557 C.3     1  LIG1        0.0788
     37 C           3.7303   -6.4209    2.0057 C.3     1  LIG1       -0.0622
     38 H           3.8936    1.4231    3.4789 H       1  LIG1        0.2095
     39 H          -0.8717    1.2245   -0.6509 H       1  LIG1        0.0379
     40 H           1.1085    1.0210    1.6624 H       1  LIG1        0.0405
     41 H          -1.9997    0.3938    2.0596 H       1  LIG1        0.0404
     42 H           2.4863   -1.6403    0.9601 H       1  LIG1        0.0657
     43 H          -2.3322   -2.6071    1.7656 H       1  LIG1        0.0622
     44 H          -2.4734   -1.8346   -0.8765 H       1  LIG1        0.0658
     45 H          -0.6669   -4.4440    1.8768 H       1  LIG1        0.0654
     46 H          -3.7392    1.8773    0.9746 H       1  LIG1        0.0622
     47 H           0.4934    0.0141   -1.9580 H       1  LIG1        0.0623
     48 H          -5.8483    1.8029   -0.3405 H       1  LIG1        0.0655
     49 H           4.9493    1.9194   -0.9646 H       1  LIG1        0.0691
     50 H           2.0816    0.3750   -3.7601 H       1  LIG1        0.0654
     51 H           3.7227   -3.6073    1.8479 H       1  LIG1        0.0696
     52 H           3.2599   -3.5573    0.1168 H       1  LIG1        0.0696
     53 H          -6.8404   -2.2851   -2.3262 H       1  LIG1        0.1166
     54 H          -6.1435   -1.4391   -3.7281 H       1  LIG1        0.1166
     55 H           3.7685    3.6131    0.7238 H       1  LIG1        0.0720
     56 H           5.1676    2.5863    1.2017 H       1  LIG1        0.0720
     57 H           4.8554   -5.3692    0.5056 H       1  LIG1        0.0295
     58 H           3.2895   -5.9845   -0.0371 H       1  LIG1        0.0295
     59 H           4.4987    4.1498    3.0397 H       1  LIG1        0.0591
     60 H           2.8790    3.4068    3.0758 H       1  LIG1        0.0591
     61 H           4.9877    1.9800   -5.3466 H       1  LIG1        0.0660
     62 H           3.3198    2.2834   -4.8476 H       1  LIG1        0.0660
     63 H           3.8975    0.6016   -5.1643 H       1  LIG1        0.0660
     64 H           4.2194   -5.9723    2.8758 H       1  LIG1        0.0231
     65 H           4.2297   -7.3705    1.7855 H       1  LIG1        0.0231
     66 H           2.6914   -6.6449    2.2699 H       1  LIG1        0.0231
@<TRIPOS>BOND
     1     1    16   ar
     2     2    16   ar
     3     3    20    1
     4     3    31    1
     5     4    19    1
     6     4    33    1
     7     5    25    1
     8     5    32    1
     9     6    29    1
    10     6    32    1
    11     7    30    1
    12     7    36    1
    13     8    35    1
    14     9    10    1
    15     9    11    1
    16     9    16    1
    17    10    12    1
    18    10    14    1
    19    11    13    1
    20    11    15    1
    21    12    13   ar
    22    12    17   ar
    23    13    18   ar
    24    14    19   ar
    25    14    24   ar
    26    15    21   ar
    27    15    23   ar
    28    17    20   ar
    29    18    22   ar
    30    19    27   ar
    31    20    22   ar
    32    21    25   ar
    33    23    26   ar
    34    24    28   ar
    35    25    29   ar
    36    26    29   ar
    37    27    30   ar
    38    28    30   ar
    39    31    34    1
    40    33    35    1
    41    34    37    1
    42     8    38    1
    43     9    39    1
    44    10    40    1
    45    11    41    1
    46    17    42    1
    47    18    43    1
    48    21    44    1
    49    22    45    1
    50    23    46    1
    51    24    47    1
    52    26    48    1
    53    27    49    1
    54    28    50    1
    55    31    51    1
    56    31    52    1
    57    32    53    1
    58    32    54    1
    59    33    55    1
    60    33    56    1
    61    34    57    1
    62    34    58    1
    63    35    59    1
    64    35    60    1
    65    36    61    1
    66    36    62    1
    67    36    63    1
    68    37    64    1
    69    37    65    1
    70    37    66    1
@<TRIPOS>MOLECULE
178103
 66 70 0 0 0
SMALL
GASTEIGER

@<TRIPOS>ATOM
      1 O          -0.9209    2.4816    2.1460 O.co2   1  LIG1       -0.5495
      2 O          -0.8247    3.3368    0.0414 O.co2   1  LIG1       -0.5495
      3 O           1.7958   -4.3535    1.5611 O.3     1  LIG1       -0.4920
      4 O           0.9691   -0.9535   -1.8342 O.3     1  LIG1       -0.4893
      5 O          -4.8716   -2.1629   -2.2768 O.3     1  LIG1       -0.4526
      6 O          -6.4728   -0.3651   -2.0961 O.3     1  LIG1       -0.4526
      7 O           4.7218    1.6352   -3.2312 O.3     1  LIG1       -0.4950
      8 O           0.7330   -4.2341   -3.4192 O.3     1  LIG1       -0.3917
      9 C          -0.7168    0.9948    0.3024 C.3     1  LIG1        0.0203
     10 C           0.6963    0.4969    0.6646 C.3     1  LIG1        0.0218
     11 C          -1.7305    0.0326    0.9643 C.3     1  LIG1        0.0184
     12 C           0.4567   -0.9597    0.9955 C.ar    1  LIG1       -0.0320
     13 C          -0.9045   -1.2206    1.1701 C.ar    1  LIG1       -0.0353
     14 C           1.7371    0.7826   -0.4155 C.ar    1  LIG1        0.0025
     15 C          -3.0004   -0.0876    0.1247 C.ar    1  LIG1       -0.0356
     16 C          -0.8334    2.3976    0.8879 C.2     1  LIG1        0.0466
     17 C           1.4120   -1.9562    1.1766 C.ar    1  LIG1       -0.0159
     18 C          -1.3262   -2.4813    1.5697 C.ar    1  LIG1       -0.0542
     19 C           1.8760    0.0473   -1.6079 C.ar    1  LIG1        0.1278
     20 C           0.9867   -3.2508    1.4748 C.ar    1  LIG1        0.1208
     21 C          -3.2598   -1.1645   -0.7411 C.ar    1  LIG1       -0.0124
     22 C          -0.3762   -3.4995    1.6981 C.ar    1  LIG1       -0.0196
     23 C          -3.9474    0.9661    0.2027 C.ar    1  LIG1       -0.0543
     24 C           2.5999    1.8744   -0.2015 C.ar    1  LIG1       -0.0510
     25 C          -4.4538   -1.1772   -1.4348 C.ar    1  LIG1        0.1665
     26 C          -5.1379    0.9397   -0.5307 C.ar    1  LIG1       -0.0159
     27 C           2.8879    0.3821   -2.5187 C.ar    1  LIG1        0.0221
     28 C           3.6072    2.1977   -1.1133 C.ar    1  LIG1       -0.0194
     29 C          -5.3674   -0.1553   -1.3314 C.ar    1  LIG1        0.1662
     30 C           3.7671    1.4398   -2.2673 C.ar    1  LIG1        0.1236
     31 C           3.1369   -4.1960    1.0961 C.3     1  LIG1        0.0893
     32 C          -6.1578   -1.6472   -2.6730 C.3     1  LIG1        0.2332
     33 C           1.3560   -1.9954   -2.7248 C.3     1  LIG1        0.1126
     34 C           3.7359   -5.5723    0.8106 C.3     1  LIG1       -0.0215
     35 C           0.4020   -3.1685   -2.5316 C.3     1  LIG1        0.0783
     36 C           5.7096    2.6175   -2.9512 C.3     1  LIG1        0.0788
     37 C           3.7138   -6.4970    2.0171 C.3     1  LIG1       -0.0622
     38 H           0.0960   -4.9445   -3.2302 H       1  LIG1        0.2095
     39 H          -0.8595    1.0273   -0.7872 H       1  LIG1        0.0379
     40 H           1.0506    0.9438    1.6051 H       1  LIG1        0.0405
     41 H          -2.0332    0.3587    1.9680 H       1  LIG1        0.0404
     42 H           2.4569   -1.6995    1.0520 H       1  LIG1        0.0657
     43 H          -2.3760   -2.6806    1.7593 H       1  LIG1        0.0622
     44 H          -2.5520   -1.9730   -0.8754 H       1  LIG1        0.0658
     45 H          -0.7000   -4.5014    1.9680 H       1  LIG1        0.0654
     46 H          -3.7358    1.8289    0.8370 H       1  LIG1        0.0622
     47 H           2.4685    2.4978    0.6831 H       1  LIG1        0.0623
     48 H          -5.8459    1.7564   -0.4708 H       1  LIG1        0.0655
     49 H           3.0031   -0.1593   -3.4513 H       1  LIG1        0.0691
     50 H           4.2286    3.0579   -0.8930 H       1  LIG1        0.0654
     51 H           3.7268   -3.6791    1.8620 H       1  LIG1        0.0696
     52 H           3.1707   -3.6261    0.1593 H       1  LIG1        0.0696
     53 H          -6.9300   -2.3643   -2.3678 H       1  LIG1        0.1166
     54 H          -6.1783   -1.5568   -3.7644 H       1  LIG1        0.1166
     55 H           2.3807   -2.3349   -2.5253 H       1  LIG1        0.0720
     56 H           1.2968   -1.6491   -3.7632 H       1  LIG1        0.0720
     57 H           4.7693   -5.4489    0.4638 H       1  LIG1        0.0295
     58 H           3.1727   -6.0483   -0.0007 H       1  LIG1        0.0295
     59 H           0.4573   -3.5405   -1.5042 H       1  LIG1        0.0591
     60 H          -0.6314   -2.8579   -2.7167 H       1  LIG1        0.0591
     61 H           6.4381    2.6000   -3.7677 H       1  LIG1        0.0660
     62 H           6.2473    2.3885   -2.0244 H       1  LIG1        0.0660
     63 H           5.2707    3.6195   -2.9177 H       1  LIG1        0.0660
     64 H           4.2452   -6.0541    2.8627 H       1  LIG1        0.0231
     65 H           4.1971   -7.4477    1.7678 H       1  LIG1        0.0231
     66 H           2.6872   -6.7174    2.3277 H       1  LIG1        0.0231
@<TRIPOS>BOND
     1     1    16   ar
     2     2    16   ar
     3     3    20    1
     4     3    31    1
     5     4    19    1
     6     4    33    1
     7     5    25    1
     8     5    32    1
     9     6    29    1
    10     6    32    1
    11     7    30    1
    12     7    36    1
    13     8    35    1
    14     9    10    1
    15     9    11    1
    16     9    16    1
    17    10    12    1
    18    10    14    1
    19    11    13    1
    20    11    15    1
    21    12    13   ar
    22    12    17   ar
    23    13    18   ar
    24    14    19   ar
    25    14    24   ar
    26    15    21   ar
    27    15    23   ar
    28    17    20   ar
    29    18    22   ar
    30    19    27   ar
    31    20    22   ar
    32    21    25   ar
    33    23    26   ar
    34    24    28   ar
    35    25    29   ar
    36    26    29   ar
    37    27    30   ar
    38    28    30   ar
    39    31    34    1
    40    33    35    1
    41    34    37    1
    42     8    38    1
    43     9    39    1
    44    10    40    1
    45    11    41    1
    46    17    42    1
    47    18    43    1
    48    21    44    1
    49    22    45    1
    50    23    46    1
    51    24    47    1
    52    26    48    1
    53    27    49    1
    54    28    50    1
    55    31    51    1
    56    31    52    1
    57    32    53    1
    58    32    54    1
    59    33    55    1
    60    33    56    1
    61    34    57    1
    62    34    58    1
    63    35    59    1
    64    35    60    1
    65    36    61    1
    66    36    62    1
    67    36    63    1
    68    37    64    1
    69    37    65    1
    70    37    66    1
@<TRIPOS>MOLECULE
178103
 66 70 0 0 0
SMALL
GASTEIGER

@<TRIPOS>ATOM
      1 O          -1.0546    3.2505   -0.0509 O.co2   1  LIG1       -0.5495
      2 O          -0.7139    2.4913    2.0654 O.co2   1  LIG1       -0.5495
      3 O           1.6825   -4.4410    1.5204 O.3     1  LIG1       -0.4920
      4 O           0.9759   -1.0903   -1.8513 O.3     1  LIG1       -0.4893
      5 O          -5.1828   -2.1991   -1.9525 O.3     1  LIG1       -0.4526
      6 O          -6.5638   -0.2213   -2.0189 O.3     1  LIG1       -0.4526
      7 O           4.5086    1.9721   -3.3333 O.3     1  LIG1       -0.4950
      8 O          -1.1080   -2.8079   -2.6103 O.3     1  LIG1       -0.3917
      9 C          -0.7421    0.9371    0.2692 C.3     1  LIG1        0.0203
     10 C           0.6705    0.4171    0.6017 C.3     1  LIG1        0.0218
     11 C          -1.7641    0.0216    0.9907 C.3     1  LIG1        0.0184
     12 C           0.4019   -1.0309    0.9379 C.ar    1  LIG1       -0.0320
     13 C          -0.9576   -1.2478    1.1869 C.ar    1  LIG1       -0.0353
     14 C           1.6838    0.7148   -0.5025 C.ar    1  LIG1        0.0025
     15 C          -3.0677   -0.0742    0.1929 C.ar    1  LIG1       -0.0356
     16 C          -0.8403    2.3569    0.8156 C.2     1  LIG1        0.0466
     17 C           1.3358   -2.0516    1.0894 C.ar    1  LIG1       -0.0159
     18 C          -1.3877   -2.4844    1.6505 C.ar    1  LIG1       -0.0542
     19 C           1.8059   -0.0127   -1.7030 C.ar    1  LIG1        0.1278
     20 C           0.8899   -3.3255    1.4404 C.ar    1  LIG1        0.1208
     21 C          -3.4709   -1.2158   -0.5208 C.ar    1  LIG1       -0.0124
     22 C          -0.4620   -3.5276    1.7535 C.ar    1  LIG1       -0.0196
     23 C          -3.9026    1.0743    0.1466 C.ar    1  LIG1       -0.0543
     24 C           2.5045    1.8442   -0.3203 C.ar    1  LIG1       -0.0510
     25 C          -4.6585   -1.1745   -1.2251 C.ar    1  LIG1        0.1665
     26 C          -5.0963    1.0933   -0.5847 C.ar    1  LIG1       -0.0159
     27 C           2.7423    0.3860   -2.6725 C.ar    1  LIG1        0.0221
     28 C           3.4379    2.2231   -1.2841 C.ar    1  LIG1       -0.0194
     29 C          -5.4480   -0.0510   -1.2597 C.ar    1  LIG1        0.1662
     30 C           3.5602    1.4996   -2.4656 C.ar    1  LIG1        0.1236
     31 C           2.9059   -4.3782    0.7843 C.3     1  LIG1        0.0893
     32 C          -6.3692   -1.5740   -2.4769 C.3     1  LIG1        0.2332
     33 C           1.1029   -1.9074   -3.0135 C.3     1  LIG1        0.1126
     34 C           3.4096   -5.7972    0.5299 C.3     1  LIG1       -0.0215
     35 C           0.2599   -3.1585   -2.7858 C.3     1  LIG1        0.0783
     36 C           4.5177    1.4093   -4.6379 C.3     1  LIG1        0.0788
     37 C           3.7294   -6.5468    1.8137 C.3     1  LIG1       -0.0622
     38 H          -1.1058   -2.0924   -1.9407 H       1  LIG1        0.2095
     39 H          -0.9150    0.9343   -0.8167 H       1  LIG1        0.0379
     40 H           1.0552    0.8516    1.5357 H       1  LIG1        0.0405
     41 H          -2.0203    0.3854    1.9948 H       1  LIG1        0.0404
     42 H           2.3821   -1.8317    0.9142 H       1  LIG1        0.0657
     43 H          -2.4289   -2.6487    1.9100 H       1  LIG1        0.0622
     44 H          -2.8818   -2.1233   -0.5469 H       1  LIG1        0.0658
     45 H          -0.7976   -4.5109    2.0709 H       1  LIG1        0.0654
     46 H          -3.5998    1.9816    0.6723 H       1  LIG1        0.0622
     47 H           2.3927    2.4568    0.5748 H       1  LIG1        0.0623
     48 H          -5.7079    1.9861   -0.6244 H       1  LIG1        0.0655
     49 H           2.8268   -0.1684   -3.5961 H       1  LIG1        0.0691
     50 H           4.0488    3.1059   -1.1177 H       1  LIG1        0.0654
     51 H           3.6491   -3.8114    1.3572 H       1  LIG1        0.0696
     52 H           2.7543   -3.9008   -0.1923 H       1  LIG1        0.0696
     53 H          -7.2389   -2.1710   -2.1790 H       1  LIG1        0.1166
     54 H          -6.3088   -1.5694   -3.5717 H       1  LIG1        0.1166
     55 H           2.1420   -2.2159   -3.1709 H       1  LIG1        0.0720
     56 H           0.7230   -1.3536   -3.8797 H       1  LIG1        0.0720
     57 H           4.3072   -5.7546   -0.0974 H       1  LIG1        0.0295
     58 H           2.6465   -6.3607   -0.0200 H       1  LIG1        0.0295
     59 H           0.3318   -3.8334   -3.6433 H       1  LIG1        0.0591
     60 H           0.5862   -3.6921   -1.8879 H       1  LIG1        0.0591
     61 H           5.2532    1.9584   -5.2339 H       1  LIG1        0.0660
     62 H           3.5444    1.5195   -5.1278 H       1  LIG1        0.0660
     63 H           4.8305    0.3604   -4.6099 H       1  LIG1        0.0660
     64 H           4.4907   -6.0185    2.3961 H       1  LIG1        0.0231
     65 H           4.1129   -7.5451    1.5795 H       1  LIG1        0.0231
     66 H           2.8385   -6.6670    2.4375 H       1  LIG1        0.0231
@<TRIPOS>BOND
     1     1    16   ar
     2     2    16   ar
     3     3    20    1
     4     3    31    1
     5     4    19    1
     6     4    33    1
     7     5    25    1
     8     5    32    1
     9     6    29    1
    10     6    32    1
    11     7    30    1
    12     7    36    1
    13     8    35    1
    14     9    10    1
    15     9    11    1
    16     9    16    1
    17    10    12    1
    18    10    14    1
    19    11    13    1
    20    11    15    1
    21    12    13   ar
    22    12    17   ar
    23    13    18   ar
    24    14    19   ar
    25    14    24   ar
    26    15    21   ar
    27    15    23   ar
    28    17    20   ar
    29    18    22   ar
    30    19    27   ar
    31    20    22   ar
    32    21    25   ar
    33    23    26   ar
    34    24    28   ar
    35    25    29   ar
    36    26    29   ar
    37    27    30   ar
    38    28    30   ar
    39    31    34    1
    40    33    35    1
    41    34    37    1
    42     8    38    1
    43     9    39    1
    44    10    40    1
    45    11    41    1
    46    17    42    1
    47    18    43    1
    48    21    44    1
    49    22    45    1
    50    23    46    1
    51    24    47    1
    52    26    48    1
    53    27    49    1
    54    28    50    1
    55    31    51    1
    56    31    52    1
    57    32    53    1
    58    32    54    1
    59    33    55    1
    60    33    56    1
    61    34    57    1
    62    34    58    1
    63    35    59    1
    64    35    60    1
    65    36    61    1
    66    36    62    1
    67    36    63    1
    68    37    64    1
    69    37    65    1
    70    37    66    1
@<TRIPOS>MOLECULE
178103
 66 70 0 0 0
SMALL
GASTEIGER

@<TRIPOS>ATOM
      1 O          -0.6236    2.4991    2.1674 O.co2   1  LIG1       -0.5495
      2 O          -1.2541    3.2865    0.1296 O.co2   1  LIG1       -0.5495
      3 O           1.7825   -4.3728    1.5450 O.3     1  LIG1       -0.4920
      4 O           0.9677   -0.9316   -1.8569 O.3     1  LIG1       -0.4893
      5 O          -4.8227   -2.1655   -2.2681 O.3     1  LIG1       -0.4526
      6 O          -6.4539   -0.3968   -2.0656 O.3     1  LIG1       -0.4526
      7 O           4.7101    1.6668   -3.2603 O.3     1  LIG1       -0.4950
      8 O           0.7456   -4.2212   -3.4255 O.3     1  LIG1       -0.3917
      9 C          -0.6854    1.0056    0.3174 C.3     1  LIG1        0.0203
     10 C           0.7247    0.4897    0.6619 C.3     1  LIG1        0.0218
     11 C          -1.7051    0.0500    0.9819 C.3     1  LIG1        0.0184
     12 C           0.4744   -0.9655    0.9857 C.ar    1  LIG1       -0.0320
     13 C          -0.8864   -1.2092    1.1857 C.ar    1  LIG1       -0.0353
     14 C           1.7547    0.7848   -0.4243 C.ar    1  LIG1        0.0025
     15 C          -2.9773   -0.0792    0.1450 C.ar    1  LIG1       -0.0356
     16 C          -0.8637    2.3911    0.9312 C.2     1  LIG1        0.0466
     17 C           1.4206   -1.9732    1.1517 C.ar    1  LIG1       -0.0159
     18 C          -1.3164   -2.4642    1.5959 C.ar    1  LIG1       -0.0542
     19 C           1.8792    0.0639   -1.6266 C.ar    1  LIG1        0.1278
     20 C           0.9856   -3.2613    1.4640 C.ar    1  LIG1        0.1208
     21 C          -3.2225   -1.1527   -0.7300 C.ar    1  LIG1       -0.0124
     22 C          -0.3767   -3.4931    1.7117 C.ar    1  LIG1       -0.0196
     23 C          -3.9402    0.9585    0.2327 C.ar    1  LIG1       -0.0543
     24 C           2.6231    1.8707   -0.2043 C.ar    1  LIG1       -0.0510
     25 C          -4.4188   -1.1801   -1.4189 C.ar    1  LIG1        0.1665
     26 C          -5.1335    0.9173   -0.4958 C.ar    1  LIG1       -0.0159
     27 C           2.8809    0.4093   -2.5447 C.ar    1  LIG1        0.0221
     28 C           3.6219    2.2035   -1.1221 C.ar    1  LIG1       -0.0194
     29 C          -5.3491   -0.1751   -1.3033 C.ar    1  LIG1        0.1662
     30 C           3.7661    1.4607   -2.2892 C.ar    1  LIG1        0.1236
     31 C           3.1223   -4.2300    1.0724 C.3     1  LIG1        0.0893
     32 C          -6.1170   -1.6662   -2.6584 C.3     1  LIG1        0.2332
     33 C           1.3588   -1.9769   -2.7421 C.3     1  LIG1        0.1126
     34 C           3.7156   -5.6140    0.8148 C.3     1  LIG1       -0.0215
     35 C           0.4066   -3.1505   -2.5468 C.3     1  LIG1        0.0783
     36 C           5.7108    2.6352   -2.9740 C.3     1  LIG1        0.0788
     37 C           3.6981   -6.5094    2.0440 C.3     1  LIG1       -0.0622
     38 H           0.1114   -4.9334   -3.2334 H       1  LIG1        0.2095
     39 H          -0.8359    1.0502   -0.7705 H       1  LIG1        0.0379
     40 H           1.0992    0.9189    1.6016 H       1  LIG1        0.0405
     41 H          -2.0012    0.3861    1.9853 H       1  LIG1        0.0404
     42 H           2.4662   -1.7290    1.0090 H       1  LIG1        0.0657
     43 H          -2.3656   -2.6507    1.8016 H       1  LIG1        0.0622
     44 H          -2.5017   -1.9488   -0.8734 H       1  LIG1        0.0658
     45 H          -0.7070   -4.4896    1.9908 H       1  LIG1        0.0654
     46 H          -3.7388    1.8250    0.8650 H       1  LIG1        0.0622
     47 H           2.5071    2.4778    0.6943 H       1  LIG1        0.0623
     48 H          -5.8529    1.7239   -0.4291 H       1  LIG1        0.0655
     49 H           2.9835   -0.1198   -3.4859 H       1  LIG1        0.0691
     50 H           4.2515    3.0563   -0.8956 H       1  LIG1        0.0654
     51 H           3.7176   -3.6995    1.8247 H       1  LIG1        0.0696
     52 H           3.1529   -3.6803    0.1236 H       1  LIG1        0.0696
     53 H          -6.8770   -2.3997   -2.3642 H       1  LIG1        0.1166
     54 H          -6.1381   -1.5618   -3.7492 H       1  LIG1        0.1166
     55 H           2.3838   -2.3135   -2.5389 H       1  LIG1        0.0720
     56 H           1.3016   -1.6349   -3.7822 H       1  LIG1        0.0720
     57 H           4.7461   -5.5038    0.4585 H       1  LIG1        0.0295
     58 H           3.1438   -6.1092    0.0209 H       1  LIG1        0.0295
     59 H           0.4556   -3.5158   -1.5168 H       1  LIG1        0.0591
     60 H          -0.6265   -2.8430   -2.7413 H       1  LIG1        0.0591
     61 H           6.4308    2.6245   -3.7980 H       1  LIG1        0.0660
     62 H           6.2551    2.3861   -2.0566 H       1  LIG1        0.0660
     63 H           5.2814    3.6408   -2.9199 H       1  LIG1        0.0660
     64 H           4.2390   -6.0465    2.8753 H       1  LIG1        0.0231
     65 H           4.1766   -7.4676    1.8167 H       1  LIG1        0.0231
     66 H           2.6738   -6.7173    2.3697 H       1  LIG1        0.0231
@<TRIPOS>BOND
     1     1    16   ar
     2     2    16   ar
     3     3    20    1
     4     3    31    1
     5     4    19    1
     6     4    33    1
     7     5    25    1
     8     5    32    1
     9     6    29    1
    10     6    32    1
    11     7    30    1
    12     7    36    1
    13     8    35    1
    14     9    10    1
    15     9    11    1
    16     9    16    1
    17    10    12    1
    18    10    14    1
    19    11    13    1
    20    11    15    1
    21    12    13   ar
    22    12    17   ar
    23    13    18   ar
    24    14    19   ar
    25    14    24   ar
    26    15    21   ar
    27    15    23   ar
    28    17    20   ar
    29    18    22   ar
    30    19    27   ar
    31    20    22   ar
    32    21    25   ar
    33    23    26   ar
    34    24    28   ar
    35    25    29   ar
    36    26    29   ar
    37    27    30   ar
    38    28    30   ar
    39    31    34    1
    40    33    35    1
    41    34    37    1
    42     8    38    1
    43     9    39    1
    44    10    40    1
    45    11    41    1
    46    17    42    1
    47    18    43    1
    48    21    44    1
    49    22    45    1
    50    23    46    1
    51    24    47    1
    52    26    48    1
    53    27    49    1
    54    28    50    1
    55    31    51    1
    56    31    52    1
    57    32    53    1
    58    32    54    1
    59    33    55    1
    60    33    56    1
    61    34    57    1
    62    34    58    1
    63    35    59    1
    64    35    60    1
    65    36    61    1
    66    36    62    1
    67    36    63    1
    68    37    64    1
    69    37    65    1
    70    37    66    1
@<TRIPOS>MOLECULE
178103
 66 70 0 0 0
SMALL
GASTEIGER

@<TRIPOS>ATOM
      1 O          -0.9111    2.4715    2.1715 O.co2   1  LIG1       -0.5495
      2 O          -0.8422    3.3362    0.0708 O.co2   1  LIG1       -0.5495
      3 O           1.8025   -4.3510    1.5694 O.3     1  LIG1       -0.4920
      4 O           0.9878   -1.0094   -1.8027 O.3     1  LIG1       -0.4893
      5 O          -4.8455   -2.1542   -2.2879 O.3     1  LIG1       -0.4526
      6 O          -6.4655   -0.3752   -2.0860 O.3     1  LIG1       -0.4526
      7 O           4.4764    1.8147   -3.4176 O.3     1  LIG1       -0.4950
      8 O           0.7532   -4.2568   -3.4495 O.3     1  LIG1       -0.3917
      9 C          -0.7231    0.9948    0.3198 C.3     1  LIG1        0.0203
     10 C           0.6958    0.4964    0.6619 C.3     1  LIG1        0.0218
     11 C          -1.7301    0.0292    0.9845 C.3     1  LIG1        0.0184
     12 C           0.4599   -0.9588    0.9995 C.ar    1  LIG1       -0.0320
     13 C          -0.9002   -1.2209    1.1844 C.ar    1  LIG1       -0.0353
     14 C           1.7064    0.7939   -0.4448 C.ar    1  LIG1        0.0025
     15 C          -3.0000   -0.0944    0.1462 C.ar    1  LIG1       -0.0356
     16 C          -0.8391    2.3936    0.9135 C.2     1  LIG1        0.0466
     17 C           1.4167   -1.9544    1.1778 C.ar    1  LIG1       -0.0159
     18 C          -1.3194   -2.4816    1.5871 C.ar    1  LIG1       -0.0542
     19 C           1.8473    0.0414   -1.6272 C.ar    1  LIG1        0.1278
     20 C           0.9937   -3.2487    1.4823 C.ar    1  LIG1        0.1208
     21 C          -3.2475   -1.1616   -0.7347 C.ar    1  LIG1       -0.0124
     22 C          -0.3685   -3.4985    1.7128 C.ar    1  LIG1       -0.0196
     23 C          -3.9573    0.9490    0.2371 C.ar    1  LIG1       -0.0543
     24 C           2.5156    1.9345   -0.2794 C.ar    1  LIG1       -0.0510
     25 C          -4.4403   -1.1771   -1.4303 C.ar    1  LIG1        0.1665
     26 C          -5.1465    0.9204   -0.4992 C.ar    1  LIG1       -0.0159
     27 C           2.8014    0.4181   -2.5826 C.ar    1  LIG1        0.0221
     28 C           3.4554    2.3084   -1.2421 C.ar    1  LIG1       -0.0194
     29 C          -5.3639   -0.1653   -1.3154 C.ar    1  LIG1        0.1662
     30 C           3.5972    1.5520   -2.4001 C.ar    1  LIG1        0.1236
     31 C           3.1397   -4.1975    1.0922 C.3     1  LIG1        0.0893
     32 C          -6.1352   -1.6452   -2.6809 C.3     1  LIG1        0.2332
     33 C           1.3602   -2.0204   -2.7329 C.3     1  LIG1        0.1126
     34 C           3.7373   -5.5765    0.8178 C.3     1  LIG1       -0.0215
     35 C           0.4378   -3.2162   -2.5278 C.3     1  LIG1        0.0783
     36 C           4.9307    3.1602   -3.5033 C.3     1  LIG1        0.0788
     37 C           3.7282   -6.4852    2.0367 C.3     1  LIG1       -0.0622
     38 H           0.1280   -4.9777   -3.2606 H       1  LIG1        0.2095
     39 H          -0.8772    1.0342   -0.7683 H       1  LIG1        0.0379
     40 H           1.0687    0.9466    1.5932 H       1  LIG1        0.0405
     41 H          -2.0315    0.3536    1.9891 H       1  LIG1        0.0404
     42 H           2.4609   -1.6982    1.0454 H       1  LIG1        0.0657
     43 H          -2.3685   -2.6806    1.7817 H       1  LIG1        0.0622
     44 H          -2.5302   -1.9609   -0.8784 H       1  LIG1        0.0658
     45 H          -0.6897   -4.4997    1.9858 H       1  LIG1        0.0654
     46 H          -3.7550    1.8063    0.8818 H       1  LIG1        0.0622
     47 H           2.3865    2.5626    0.6025 H       1  LIG1        0.0623
     48 H          -5.8634    1.7295   -0.4297 H       1  LIG1        0.0655
     49 H           2.9180   -0.1345   -3.5083 H       1  LIG1        0.0691
     50 H           4.0445    3.1991   -1.0568 H       1  LIG1        0.0654
     51 H           3.7355   -3.6718    1.8474 H       1  LIG1        0.0696
     52 H           3.1647   -3.6380    0.1490 H       1  LIG1        0.0696
     53 H          -6.9014   -2.3741   -2.3914 H       1  LIG1        0.1166
     54 H          -6.1522   -1.5373   -3.7712 H       1  LIG1        0.1166
     55 H           2.3992   -2.3400   -2.5805 H       1  LIG1        0.0720
     56 H           1.2514   -1.6542   -3.7606 H       1  LIG1        0.0720
     57 H           4.7655   -5.4581    0.4580 H       1  LIG1        0.0295
     58 H           3.1640   -6.0647    0.0207 H       1  LIG1        0.0295
     59 H           0.5387   -3.6077   -1.5112 H       1  LIG1        0.0591
     60 H          -0.6078   -2.9216   -2.6674 H       1  LIG1        0.0591
     61 H           5.4655    3.2707   -4.4517 H       1  LIG1        0.0660
     62 H           5.6353    3.3882   -2.6973 H       1  LIG1        0.0660
     63 H           4.0940    3.8674   -3.5096 H       1  LIG1        0.0660
     64 H           4.2707   -6.0303    2.8707 H       1  LIG1        0.0231
     65 H           4.2089   -7.4389    1.7966 H       1  LIG1        0.0231
     66 H           2.7065   -6.7007    2.3644 H       1  LIG1        0.0231
@<TRIPOS>BOND
     1     1    16   ar
     2     2    16   ar
     3     3    20    1
     4     3    31    1
     5     4    19    1
     6     4    33    1
     7     5    25    1
     8     5    32    1
     9     6    29    1
    10     6    32    1
    11     7    30    1
    12     7    36    1
    13     8    35    1
    14     9    10    1
    15     9    11    1
    16     9    16    1
    17    10    12    1
    18    10    14    1
    19    11    13    1
    20    11    15    1
    21    12    13   ar
    22    12    17   ar
    23    13    18   ar
    24    14    19   ar
    25    14    24   ar
    26    15    21   ar
    27    15    23   ar
    28    17    20   ar
    29    18    22   ar
    30    19    27   ar
    31    20    22   ar
    32    21    25   ar
    33    23    26   ar
    34    24    28   ar
    35    25    29   ar
    36    26    29   ar
    37    27    30   ar
    38    28    30   ar
    39    31    34    1
    40    33    35    1
    41    34    37    1
    42     8    38    1
    43     9    39    1
    44    10    40    1
    45    11    41    1
    46    17    42    1
    47    18    43    1
    48    21    44    1
    49    22    45    1
    50    23    46    1
    51    24    47    1
    52    26    48    1
    53    27    49    1
    54    28    50    1
    55    31    51    1
    56    31    52    1
    57    32    53    1
    58    32    54    1
    59    33    55    1
    60    33    56    1
    61    34    57    1
    62    34    58    1
    63    35    59    1
    64    35    60    1
    65    36    61    1
    66    36    62    1
    67    36    63    1
    68    37    64    1
    69    37    65    1
    70    37    66    1
@<TRIPOS>MOLECULE
178103
 66 70 0 0 0
SMALL
GASTEIGER

@<TRIPOS>ATOM
      1 O          -0.9188    3.4088    0.1327 O.co2   1  LIG1       -0.5495
      2 O          -0.8276    2.5129    2.2231 O.co2   1  LIG1       -0.5495
      3 O           1.8615   -4.1583    1.7079 O.3     1  LIG1       -0.4920
      4 O           3.3938    1.0564    1.1889 O.3     1  LIG1       -0.4893
      5 O          -4.9072   -1.9977   -2.2859 O.3     1  LIG1       -0.4526
      6 O          -6.5083   -0.2062   -2.0578 O.3     1  LIG1       -0.4526
      7 O           4.6450    1.4302   -3.4058 O.3     1  LIG1       -0.4950
      8 O           4.3523    1.8779    3.7680 O.3     1  LIG1       -0.3917
      9 C          -0.7212    1.0724    0.3358 C.3     1  LIG1        0.0203
     10 C           0.6963    0.5183    0.6332 C.3     1  LIG1        0.0218
     11 C          -1.7502    0.1216    0.9891 C.3     1  LIG1        0.0184
     12 C           0.4087   -0.9376    0.9333 C.ar    1  LIG1       -0.0320
     13 C          -0.9516   -1.1512    1.1623 C.ar    1  LIG1       -0.0353
     14 C           1.7387    0.7237   -0.4665 C.ar    1  LIG1        0.0025
     15 C          -3.0246    0.0254    0.1508 C.ar    1  LIG1       -0.0356
     16 C          -0.8209    2.4592    0.9625 C.2     1  LIG1        0.0466
     17 C           1.3263   -1.9669    1.1172 C.ar    1  LIG1       -0.0159
     18 C          -1.4075   -2.3908    1.5958 C.ar    1  LIG1       -0.0542
     19 C           3.0813    1.0143   -0.1457 C.ar    1  LIG1        0.1278
     20 C           0.8765   -3.2215    1.5390 C.ar    1  LIG1        0.1208
     21 C          -3.2886   -1.0325   -0.7377 C.ar    1  LIG1       -0.0124
     22 C          -0.4909   -3.4337    1.7634 C.ar    1  LIG1       -0.0196
     23 C          -3.9692    1.0781    0.2555 C.ar    1  LIG1       -0.0543
     24 C           1.3995    0.5888   -1.8245 C.ar    1  LIG1       -0.0510
     25 C          -4.4855   -1.0307   -1.4254 C.ar    1  LIG1        0.1665
     26 C          -5.1639    1.0659   -0.4724 C.ar    1  LIG1       -0.0159
     27 C           4.0123    1.2463   -1.1672 C.ar    1  LIG1        0.0221
     28 C           2.3364    0.8150   -2.8370 C.ar    1  LIG1       -0.0194
     29 C          -5.3985   -0.0117   -1.2948 C.ar    1  LIG1        0.1662
     30 C           3.6414    1.1667   -2.5112 C.ar    1  LIG1        0.1236
     31 C           1.5241   -5.2962    2.4994 C.3     1  LIG1        0.0893
     32 C          -6.1978   -1.4781   -2.6598 C.3     1  LIG1        0.2332
     33 C           4.7758    0.9991    1.5447 C.3     1  LIG1        0.1126
     34 C           2.8105   -6.0240    2.8839 C.3     1  LIG1       -0.0215
     35 C           4.8538    0.7533    3.0487 C.3     1  LIG1        0.0783
     36 C           4.2350    1.6881   -4.7433 C.3     1  LIG1        0.0788
     37 C           3.7055   -5.1721    3.7738 C.3     1  LIG1       -0.0622
     38 H           3.4594    2.0528    3.4036 H       1  LIG1        0.2095
     39 H          -0.9246    1.1617   -0.7368 H       1  LIG1        0.0379
     40 H           1.0680    0.9622    1.5656 H       1  LIG1        0.0405
     41 H          -2.0427    0.4373    1.9991 H       1  LIG1        0.0404
     42 H           2.3868   -1.7898    0.9696 H       1  LIG1        0.0657
     43 H          -2.4612   -2.5461    1.8076 H       1  LIG1        0.0622
     44 H          -2.5841   -1.8421   -0.8904 H       1  LIG1        0.0658
     45 H          -0.8717   -4.3978    2.0806 H       1  LIG1        0.0654
     46 H          -3.7537    1.9275    0.9059 H       1  LIG1        0.0622
     47 H           0.3891    0.3111   -2.1145 H       1  LIG1        0.0623
     48 H          -5.8727    1.8811   -0.3904 H       1  LIG1        0.0655
     49 H           5.0382    1.5168   -0.9441 H       1  LIG1        0.0691
     50 H           2.0062    0.7114   -3.8641 H       1  LIG1        0.0654
     51 H           0.8935   -5.9724    1.9103 H       1  LIG1        0.0696
     52 H           0.9938   -5.0012    3.4137 H       1  LIG1        0.0696
     53 H          -6.9658   -2.2016   -2.3613 H       1  LIG1        0.1166
     54 H          -6.2291   -1.3678   -3.7496 H       1  LIG1        0.1166
     55 H           5.2513    1.9563    1.3037 H       1  LIG1        0.0720
     56 H           5.2751    0.1732    1.0252 H       1  LIG1        0.0720
     57 H           3.3695   -6.2891    1.9793 H       1  LIG1        0.0295
     58 H           2.5595   -6.9526    3.4078 H       1  LIG1        0.0295
     59 H           4.2607   -0.1207    3.3371 H       1  LIG1        0.0591
     60 H           5.8916    0.5948    3.3565 H       1  LIG1        0.0591
     61 H           5.1121    2.0315   -5.3001 H       1  LIG1        0.0660
     62 H           3.4821    2.4825   -4.7869 H       1  LIG1        0.0660
     63 H           3.8739    0.7735   -5.2240 H       1  LIG1        0.0660
     64 H           4.0300   -4.2621    3.2587 H       1  LIG1        0.0231
     65 H           4.6002   -5.7343    4.0596 H       1  LIG1        0.0231
     66 H           3.1818   -4.8791    4.6898 H       1  LIG1        0.0231
@<TRIPOS>BOND
     1     1    16   ar
     2     2    16   ar
     3     3    20    1
     4     3    31    1
     5     4    19    1
     6     4    33    1
     7     5    25    1
     8     5    32    1
     9     6    29    1
    10     6    32    1
    11     7    30    1
    12     7    36    1
    13     8    35    1
    14     9    10    1
    15     9    11    1
    16     9    16    1
    17    10    12    1
    18    10    14    1
    19    11    13    1
    20    11    15    1
    21    12    13   ar
    22    12    17   ar
    23    13    18   ar
    24    14    19   ar
    25    14    24   ar
    26    15    21   ar
    27    15    23   ar
    28    17    20   ar
    29    18    22   ar
    30    19    27   ar
    31    20    22   ar
    32    21    25   ar
    33    23    26   ar
    34    24    28   ar
    35    25    29   ar
    36    26    29   ar
    37    27    30   ar
    38    28    30   ar
    39    31    34    1
    40    33    35    1
    41    34    37    1
    42     8    38    1
    43     9    39    1
    44    10    40    1
    45    11    41    1
    46    17    42    1
    47    18    43    1
    48    21    44    1
    49    22    45    1
    50    23    46    1
    51    24    47    1
    52    26    48    1
    53    27    49    1
    54    28    50    1
    55    31    51    1
    56    31    52    1
    57    32    53    1
    58    32    54    1
    59    33    55    1
    60    33    56    1
    61    34    57    1
    62    34    58    1
    63    35    59    1
    64    35    60    1
    65    36    61    1
    66    36    62    1
    67    36    63    1
    68    37    64    1
    69    37    65    1
    70    37    66    1
@<TRIPOS>MOLECULE
178103
 66 70 0 0 0
SMALL
GASTEIGER

@<TRIPOS>ATOM
      1 O          -0.5455    3.4100    0.1779 O.co2   1  LIG1       -0.5495
      2 O          -1.0868    2.5281    2.2049 O.co2   1  LIG1       -0.5495
      3 O           1.8075   -4.2259    1.5858 O.3     1  LIG1       -0.4920
      4 O           3.4523    0.9068    1.2396 O.3     1  LIG1       -0.4893
      5 O          -5.0376   -2.1957   -2.0745 O.3     1  LIG1       -0.4526
      6 O          -6.4898   -0.2715   -2.1417 O.3     1  LIG1       -0.4526
      7 O           4.6220    1.5983   -3.3618 O.3     1  LIG1       -0.4950
      8 O           4.7790    1.8583    3.8834 O.3     1  LIG1       -0.3917
      9 C          -0.7254    1.0704    0.3628 C.3     1  LIG1        0.0203
     10 C           0.6953    0.5082    0.6568 C.3     1  LIG1        0.0218
     11 C          -1.7672    0.1029    0.9724 C.3     1  LIG1        0.0184
     12 C           0.3987   -0.9546    0.9192 C.ar    1  LIG1       -0.0320
     13 C          -0.9605   -1.1642    1.1518 C.ar    1  LIG1       -0.0353
     14 C           1.7523    0.7465   -0.4246 C.ar    1  LIG1        0.0025
     15 C          -3.0173    0.0031    0.0904 C.ar    1  LIG1       -0.0356
     16 C          -0.7807    2.4630    0.9816 C.2     1  LIG1        0.0466
     17 C           1.3054   -2.0010    1.0668 C.ar    1  LIG1       -0.0159
     18 C          -1.4244   -2.4030    1.5758 C.ar    1  LIG1       -0.0542
     19 C           3.1088    0.9751   -0.0952 C.ar    1  LIG1        0.1278
     20 C           0.8419   -3.2626    1.4562 C.ar    1  LIG1        0.1208
     21 C          -3.3597   -1.1402   -0.6574 C.ar    1  LIG1       -0.0124
     22 C          -0.5238   -3.4643    1.6937 C.ar    1  LIG1       -0.0196
     23 C          -3.8825    1.1274    0.0262 C.ar    1  LIG1       -0.0543
     24 C           1.3945    0.7306   -1.7882 C.ar    1  LIG1       -0.0510
     25 C          -4.5423   -1.1451   -1.3584 C.ar    1  LIG1        0.1665
     26 C          -5.0624    1.1073   -0.7267 C.ar    1  LIG1       -0.0159
     27 C           4.0312    1.2477   -1.1209 C.ar    1  LIG1        0.0221
     28 C           2.3190    1.0190   -2.7933 C.ar    1  LIG1       -0.0194
     29 C          -5.3757   -0.0517   -1.3949 C.ar    1  LIG1        0.1662
     30 C           3.6348    1.3024   -2.4590 C.ar    1  LIG1        0.1236
     31 C           1.4678   -5.3493    2.3976 C.3     1  LIG1        0.0893
     32 C          -6.2890   -1.6450   -2.5251 C.3     1  LIG1        0.2332
     33 C           4.8382    1.0623    1.5612 C.3     1  LIG1        0.1126
     34 C           2.7509   -6.0046    2.8953 C.3     1  LIG1       -0.0215
     35 C           5.0831    0.7545    3.0425 C.3     1  LIG1        0.0783
     36 C           4.1793    2.3180   -4.5088 C.3     1  LIG1        0.0788
     37 C           3.5661   -5.0579    3.7639 C.3     1  LIG1       -0.0622
     38 H           3.8019    1.8857    3.9741 H       1  LIG1        0.2095
     39 H          -0.9267    1.1814   -0.7068 H       1  LIG1        0.0379
     40 H           1.0576    0.9351    1.6027 H       1  LIG1        0.0405
     41 H          -2.1001    0.4026    1.9747 H       1  LIG1        0.0404
     42 H           2.3667   -1.8354    0.9110 H       1  LIG1        0.0657
     43 H          -2.4765   -2.5538    1.7995 H       1  LIG1        0.0622
     44 H          -2.7256   -2.0189   -0.6901 H       1  LIG1        0.0658
     45 H          -0.9155   -4.4350    1.9786 H       1  LIG1        0.0654
     46 H          -3.6191    2.0344    0.5744 H       1  LIG1        0.0622
     47 H           0.3766    0.5089   -2.0918 H       1  LIG1        0.0623
     48 H          -5.7051    1.9790   -0.7711 H       1  LIG1        0.0655
     49 H           5.0734    1.4510   -0.9097 H       1  LIG1        0.0691
     50 H           1.9755    1.0110   -3.8232 H       1  LIG1        0.0654
     51 H           0.8984   -6.0676    1.7931 H       1  LIG1        0.0696
     52 H           0.8692   -5.0539    3.2698 H       1  LIG1        0.0696
     53 H          -7.1079   -2.2484   -2.1100 H       1  LIG1        0.1166
     54 H          -6.3286   -1.7163   -3.6194 H       1  LIG1        0.1166
     55 H           5.1521    2.0891    1.3371 H       1  LIG1        0.0720
     56 H           5.4278    0.3401    0.9821 H       1  LIG1        0.0720
     57 H           3.3649   -6.3161    2.0435 H       1  LIG1        0.0295
     58 H           2.4985   -6.9022    3.4731 H       1  LIG1        0.0295
     59 H           4.4936   -0.1050    3.3778 H       1  LIG1        0.0591
     60 H           6.1426    0.5349    3.1906 H       1  LIG1        0.0591
     61 H           5.0660    2.6803   -5.0372 H       1  LIG1        0.0660
     62 H           3.5777    3.1911   -4.2280 H       1  LIG1        0.0660
     63 H           3.6306    1.6662   -5.1965 H       1  LIG1        0.0660
     64 H           3.9196   -4.1955    3.1883 H       1  LIG1        0.0231
     65 H           4.4434   -5.5732    4.1696 H       1  LIG1        0.0231
     66 H           2.9713   -4.6855    4.6061 H       1  LIG1        0.0231
@<TRIPOS>BOND
     1     1    16   ar
     2     2    16   ar
     3     3    20    1
     4     3    31    1
     5     4    19    1
     6     4    33    1
     7     5    25    1
     8     5    32    1
     9     6    29    1
    10     6    32    1
    11     7    30    1
    12     7    36    1
    13     8    35    1
    14     9    10    1
    15     9    11    1
    16     9    16    1
    17    10    12    1
    18    10    14    1
    19    11    13    1
    20    11    15    1
    21    12    13   ar
    22    12    17   ar
    23    13    18   ar
    24    14    19   ar
    25    14    24   ar
    26    15    21   ar
    27    15    23   ar
    28    17    20   ar
    29    18    22   ar
    30    19    27   ar
    31    20    22   ar
    32    21    25   ar
    33    23    26   ar
    34    24    28   ar
    35    25    29   ar
    36    26    29   ar
    37    27    30   ar
    38    28    30   ar
    39    31    34    1
    40    33    35    1
    41    34    37    1
    42     8    38    1
    43     9    39    1
    44    10    40    1
    45    11    41    1
    46    17    42    1
    47    18    43    1
    48    21    44    1
    49    22    45    1
    50    23    46    1
    51    24    47    1
    52    26    48    1
    53    27    49    1
    54    28    50    1
    55    31    51    1
    56    31    52    1
    57    32    53    1
    58    32    54    1
    59    33    55    1
    60    33    56    1
    61    34    57    1
    62    34    58    1
    63    35    59    1
    64    35    60    1
    65    36    61    1
    66    36    62    1
    67    36    63    1
    68    37    64    1
    69    37    65    1
    70    37    66    1
@<TRIPOS>MOLECULE
178103
 66 70 0 0 0
SMALL
GASTEIGER

@<TRIPOS>ATOM
      1 O          -0.7655    3.3560    0.0137 O.co2   1  LIG1       -0.5495
      2 O          -0.9341    2.4969    2.1134 O.co2   1  LIG1       -0.5495
      3 O           1.7431   -4.3349    1.5424 O.3     1  LIG1       -0.4920
      4 O           0.5998   -0.6172   -2.0786 O.3     1  LIG1       -0.4893
      5 O          -5.0684   -2.2101   -2.0934 O.3     1  LIG1       -0.4526
      6 O          -6.5385   -0.2966   -2.1022 O.3     1  LIG1       -0.4526
      7 O           4.7604    1.3877   -3.2792 O.3     1  LIG1       -0.4950
      8 O          -0.9548   -2.8320   -2.8703 O.3     1  LIG1       -0.3917
      9 C          -0.7687    1.0121    0.2647 C.3     1  LIG1        0.0203
     10 C           0.6478    0.4914    0.5788 C.3     1  LIG1        0.0218
     11 C          -1.7796    0.0574    0.9506 C.3     1  LIG1        0.0184
     12 C           0.3969   -0.9663    0.8920 C.ar    1  LIG1       -0.0320
     13 C          -0.9568   -1.2006    1.1470 C.ar    1  LIG1       -0.0353
     14 C           1.6987    0.7525   -0.4942 C.ar    1  LIG1        0.0025
     15 C          -3.0627   -0.0588    0.1263 C.ar    1  LIG1       -0.0356
     16 C          -0.8274    2.4170    0.8548 C.2     1  LIG1        0.0466
     17 C           1.3438   -1.9783    1.0238 C.ar    1  LIG1       -0.0159
     18 C          -1.3712   -2.4457    1.5996 C.ar    1  LIG1       -0.0542
     19 C           1.6622    0.1953   -1.7856 C.ar    1  LIG1        0.1278
     20 C           0.9287   -3.2408    1.4422 C.ar    1  LIG1        0.1208
     21 C          -3.4056   -1.1930   -0.6296 C.ar    1  LIG1       -0.0124
     22 C          -0.4273   -3.4712    1.7202 C.ar    1  LIG1       -0.0196
     23 C          -3.9401    1.0565    0.1052 C.ar    1  LIG1       -0.0543
     24 C           2.7732    1.5985   -0.1606 C.ar    1  LIG1       -0.0510
     25 C          -4.5925   -1.1853   -1.3346 C.ar    1  LIG1        0.1665
     26 C          -5.1292    1.0445   -0.6337 C.ar    1  LIG1       -0.0159
     27 C           2.7118    0.4475   -2.6797 C.ar    1  LIG1        0.0221
     28 C           3.8125    1.8464   -1.0599 C.ar    1  LIG1       -0.0194
     29 C          -5.4306   -0.0972   -1.3390 C.ar    1  LIG1        0.1662
     30 C           3.7948    1.2522   -2.3170 C.ar    1  LIG1        0.1236
     31 C           3.0639   -4.1113    2.0372 C.3     1  LIG1        0.0893
     32 C          -6.3041   -1.6412   -2.5658 C.3     1  LIG1        0.2332
     33 C           0.3355   -0.8722   -3.4596 C.3     1  LIG1        0.1126
     34 C           4.0008   -5.1410    1.4086 C.3     1  LIG1       -0.0215
     35 C          -1.0142   -1.5756   -3.5466 C.3     1  LIG1        0.0783
     36 C           6.0107    1.9038   -2.8406 C.3     1  LIG1        0.0788
     37 C           4.1109   -4.9687   -0.1007 C.3     1  LIG1       -0.0622
     38 H          -0.6206   -2.6235   -1.9727 H       1  LIG1        0.2095
     39 H          -0.9502    1.0631   -0.8172 H       1  LIG1        0.0379
     40 H           1.0129    0.9198    1.5241 H       1  LIG1        0.0405
     41 H          -2.0686    0.3926    1.9551 H       1  LIG1        0.0404
     42 H           2.3735   -1.7600    0.7684 H       1  LIG1        0.0657
     43 H          -2.4129   -2.6282    1.8457 H       1  LIG1        0.0622
     44 H          -2.7655   -2.0652   -0.6873 H       1  LIG1        0.0658
     45 H          -0.7473   -4.4579    2.0417 H       1  LIG1        0.0654
     46 H          -3.6770    1.9563    0.6645 H       1  LIG1        0.0622
     47 H           2.7960    2.0820    0.8158 H       1  LIG1        0.0623
     48 H          -5.7809    1.9099   -0.6518 H       1  LIG1        0.0655
     49 H           2.7254    0.0066   -3.6704 H       1  LIG1        0.0691
     50 H           4.6066    2.5141   -0.7473 H       1  LIG1        0.0654
     51 H           3.0426   -4.2563    3.1232 H       1  LIG1        0.0696
     52 H           3.4594   -3.1103    1.8470 H       1  LIG1        0.0696
     53 H          -7.1324   -2.2757   -2.2286 H       1  LIG1        0.1166
     54 H          -6.2917   -1.6384   -3.6621 H       1  LIG1        0.1166
     55 H           1.1105   -1.5371   -3.8579 H       1  LIG1        0.0720
     56 H           0.2948    0.0639   -4.0283 H       1  LIG1        0.0720
     57 H           3.6327   -6.1520    1.6178 H       1  LIG1        0.0295
     58 H           4.9965   -5.0484    1.8570 H       1  LIG1        0.0295
     59 H          -1.7998   -0.9752   -3.0806 H       1  LIG1        0.0591
     60 H          -1.2847   -1.7636   -4.5895 H       1  LIG1        0.0591
     61 H           6.7146    1.8238   -3.6749 H       1  LIG1        0.0660
     62 H           6.4144    1.3159   -2.0091 H       1  LIG1        0.0660
     63 H           5.9290    2.9622   -2.5748 H       1  LIG1        0.0660
     64 H           3.1445   -5.1254   -0.5906 H       1  LIG1        0.0231
     65 H           4.8181   -5.6947   -0.5134 H       1  LIG1        0.0231
     66 H           4.4657   -3.9651   -0.3559 H       1  LIG1        0.0231
@<TRIPOS>BOND
     1     1    16   ar
     2     2    16   ar
     3     3    20    1
     4     3    31    1
     5     4    19    1
     6     4    33    1
     7     5    25    1
     8     5    32    1
     9     6    29    1
    10     6    32    1
    11     7    30    1
    12     7    36    1
    13     8    35    1
    14     9    10    1
    15     9    11    1
    16     9    16    1
    17    10    12    1
    18    10    14    1
    19    11    13    1
    20    11    15    1
    21    12    13   ar
    22    12    17   ar
    23    13    18   ar
    24    14    19   ar
    25    14    24   ar
    26    15    21   ar
    27    15    23   ar
    28    17    20   ar
    29    18    22   ar
    30    19    27   ar
    31    20    22   ar
    32    21    25   ar
    33    23    26   ar
    34    24    28   ar
    35    25    29   ar
    36    26    29   ar
    37    27    30   ar
    38    28    30   ar
    39    31    34    1
    40    33    35    1
    41    34    37    1
    42     8    38    1
    43     9    39    1
    44    10    40    1
    45    11    41    1
    46    17    42    1
    47    18    43    1
    48    21    44    1
    49    22    45    1
    50    23    46    1
    51    24    47    1
    52    26    48    1
    53    27    49    1
    54    28    50    1
    55    31    51    1
    56    31    52    1
    57    32    53    1
    58    32    54    1
    59    33    55    1
    60    33    56    1
    61    34    57    1
    62    34    58    1
    63    35    59    1
    64    35    60    1
    65    36    61    1
    66    36    62    1
    67    36    63    1
    68    37    64    1
    69    37    65    1
    70    37    66    1
@<TRIPOS>MOLECULE
178103
 66 70 0 0 0
SMALL
GASTEIGER

@<TRIPOS>ATOM
      1 O          -0.7609    3.5183    0.5835 O.co2   1  LIG1       -0.5495
      2 O          -0.7435    2.3330    2.5287 O.co2   1  LIG1       -0.5495
      3 O           1.8250   -4.2332    1.3434 O.3     1  LIG1       -0.4920
      4 O           3.4703    1.0864    1.2643 O.3     1  LIG1       -0.4893
      5 O          -4.2800   -0.1761   -3.3174 O.3     1  LIG1       -0.4526
      6 O          -6.4005   -0.1369   -2.1671 O.3     1  LIG1       -0.4526
      7 O           4.6709    1.6701   -3.3289 O.3     1  LIG1       -0.4950
      8 O           4.4386    1.8813    3.8514 O.3     1  LIG1       -0.3917
      9 C          -0.6370    1.1713    0.4571 C.3     1  LIG1        0.0203
     10 C           0.7687    0.5534    0.7030 C.3     1  LIG1        0.0218
     11 C          -1.6933    0.1547    0.9512 C.3     1  LIG1        0.0184
     12 C           0.4528   -0.9199    0.8518 C.ar    1  LIG1       -0.0320
     13 C          -0.9192   -1.1444    0.9642 C.ar    1  LIG1       -0.0353
     14 C           1.8043    0.8262   -0.3913 C.ar    1  LIG1        0.0025
     15 C          -2.9670    0.0878    0.1145 C.ar    1  LIG1       -0.0356
     16 C          -0.7202    2.4591    1.2730 C.2     1  LIG1        0.0466
     17 C           1.3543   -1.9722    0.9773 C.ar    1  LIG1       -0.0159
     18 C          -1.4125   -2.4277    1.1686 C.ar    1  LIG1       -0.0542
     19 C           3.1487    1.1041   -0.0680 C.ar    1  LIG1        0.1278
     20 C           0.8701   -3.2606    1.2149 C.ar    1  LIG1        0.1208
     21 C          -2.9370   -0.0264   -1.2870 C.ar    1  LIG1       -0.0124
     22 C          -0.5110   -3.4911    1.2758 C.ar    1  LIG1       -0.0196
     23 C          -4.2228    0.1056    0.7733 C.ar    1  LIG1       -0.0543
     24 C           1.4539    0.7489   -1.7519 C.ar    1  LIG1       -0.0510
     25 C          -4.1353   -0.0868   -1.9676 C.ar    1  LIG1        0.1665
     26 C          -5.4224    0.0233    0.0590 C.ar    1  LIG1       -0.0159
     27 C           4.0714    1.3799   -1.0864 C.ar    1  LIG1        0.0221
     28 C           2.3802    1.0214   -2.7611 C.ar    1  LIG1       -0.0194
     29 C          -5.3440   -0.0636   -1.3122 C.ar    1  LIG1        0.1662
     30 C           3.6846    1.3668   -2.4275 C.ar    1  LIG1        0.1236
     31 C           1.5382   -5.2805    2.2725 C.3     1  LIG1        0.0893
     32 C          -5.7149   -0.1359   -3.4349 C.3     1  LIG1        0.2332
     33 C           4.8555    1.0487    1.6101 C.3     1  LIG1        0.1126
     34 C           1.2995   -6.5930    1.5307 C.3     1  LIG1       -0.0215
     35 C           4.9483    0.7763    3.1078 C.3     1  LIG1        0.0783
     36 C           4.2117    2.2526   -4.5445 C.3     1  LIG1        0.0788
     37 C           2.5305   -7.0472    0.7587 C.3     1  LIG1       -0.0622
     38 H           3.5386    2.0498    3.5005 H       1  LIG1        0.2095
     39 H          -0.7997    1.4379   -0.5913 H       1  LIG1        0.0379
     40 H           1.1580    0.8952    1.6699 H       1  LIG1        0.0405
     41 H          -1.9770    0.3547    1.9920 H       1  LIG1        0.0404
     42 H           2.4226   -1.7894    0.9260 H       1  LIG1        0.0657
     43 H          -2.4800   -2.6009    1.2598 H       1  LIG1        0.0622
     44 H          -2.0004   -0.0597   -1.8310 H       1  LIG1        0.0658
     45 H          -0.9083   -4.4900    1.4157 H       1  LIG1        0.0654
     46 H          -4.2574    0.1923    1.8578 H       1  LIG1        0.0622
     47 H           0.4434    0.4744   -2.0424 H       1  LIG1        0.0623
     48 H          -6.3776    0.0408    0.5675 H       1  LIG1        0.0655
     49 H           5.1005    1.6362   -0.8630 H       1  LIG1        0.0691
     50 H           2.0511    0.9516   -3.7914 H       1  LIG1        0.0654
     51 H           0.7004   -5.0487    2.9419 H       1  LIG1        0.0696
     52 H           2.4180   -5.3818    2.9190 H       1  LIG1        0.0696
     53 H          -6.0429   -1.0097   -4.0101 H       1  LIG1        0.1166
     54 H          -5.9984    0.7699   -3.9856 H       1  LIG1        0.1166
     55 H           5.3130    2.0189    1.3844 H       1  LIG1        0.0720
     56 H           5.3645    0.2416    1.0700 H       1  LIG1        0.0720
     57 H           0.4704   -6.4781    0.8235 H       1  LIG1        0.0295
     58 H           1.0189   -7.3702    2.2498 H       1  LIG1        0.0295
     59 H           4.3685   -0.1100    3.3850 H       1  LIG1        0.0591
     60 H           5.9902    0.6260    3.4050 H       1  LIG1        0.0591
     61 H           5.0806    2.6726   -5.0612 H       1  LIG1        0.0660
     62 H           3.5069    3.0714   -4.3601 H       1  LIG1        0.0660
     63 H           3.7712    1.4940   -5.1985 H       1  LIG1        0.0660
     64 H           2.8164   -6.3155   -0.0028 H       1  LIG1        0.0231
     65 H           2.3313   -7.9980    0.2549 H       1  LIG1        0.0231
     66 H           3.3818   -7.1925    1.4323 H       1  LIG1        0.0231
@<TRIPOS>BOND
     1     1    16   ar
     2     2    16   ar
     3     3    20    1
     4     3    31    1
     5     4    19    1
     6     4    33    1
     7     5    25    1
     8     5    32    1
     9     6    29    1
    10     6    32    1
    11     7    30    1
    12     7    36    1
    13     8    35    1
    14     9    10    1
    15     9    11    1
    16     9    16    1
    17    10    12    1
    18    10    14    1
    19    11    13    1
    20    11    15    1
    21    12    13   ar
    22    12    17   ar
    23    13    18   ar
    24    14    19   ar
    25    14    24   ar
    26    15    21   ar
    27    15    23   ar
    28    17    20   ar
    29    18    22   ar
    30    19    27   ar
    31    20    22   ar
    32    21    25   ar
    33    23    26   ar
    34    24    28   ar
    35    25    29   ar
    36    26    29   ar
    37    27    30   ar
    38    28    30   ar
    39    31    34    1
    40    33    35    1
    41    34    37    1
    42     8    38    1
    43     9    39    1
    44    10    40    1
    45    11    41    1
    46    17    42    1
    47    18    43    1
    48    21    44    1
    49    22    45    1
    50    23    46    1
    51    24    47    1
    52    26    48    1
    53    27    49    1
    54    28    50    1
    55    31    51    1
    56    31    52    1
    57    32    53    1
    58    32    54    1
    59    33    55    1
    60    33    56    1
    61    34    57    1
    62    34    58    1
    63    35    59    1
    64    35    60    1
    65    36    61    1
    66    36    62    1
    67    36    63    1
    68    37    64    1
    69    37    65    1
    70    37    66    1
@<TRIPOS>MOLECULE
178103
 66 70 0 0 0
SMALL
GASTEIGER

@<TRIPOS>ATOM
      1 O          -0.6648    2.4808    2.1782 O.co2   1  LIG1       -0.5495
      2 O          -1.1951    3.2955    0.1229 O.co2   1  LIG1       -0.5495
      3 O           1.7857   -4.3733    1.5471 O.3     1  LIG1       -0.4920
      4 O           0.9694   -0.9375   -1.8513 O.3     1  LIG1       -0.4893
      5 O          -4.8489   -2.1716   -2.2588 O.3     1  LIG1       -0.4526
      6 O          -6.4540   -0.3761   -2.0879 O.3     1  LIG1       -0.4526
      7 O           4.7133    1.6611   -3.2501 O.3     1  LIG1       -0.4950
      8 O           0.7411   -4.2223   -3.4290 O.3     1  LIG1       -0.3917
      9 C          -0.6902    1.0007    0.3169 C.3     1  LIG1        0.0203
     10 C           0.7194    0.4867    0.6647 C.3     1  LIG1        0.0218
     11 C          -1.7115    0.0423    0.9752 C.3     1  LIG1        0.0184
     12 C           0.4705   -0.9689    0.9868 C.ar    1  LIG1       -0.0320
     13 C          -0.8913   -1.2165    1.1791 C.ar    1  LIG1       -0.0353
     14 C           1.7521    0.7814   -0.4205 C.ar    1  LIG1        0.0025
     15 C          -2.9812   -0.0811    0.1336 C.ar    1  LIG1       -0.0356
     16 C          -0.8596    2.3868    0.9330 C.2     1  LIG1        0.0466
     17 C           1.4179   -1.9743    1.1570 C.ar    1  LIG1       -0.0159
     18 C          -1.3185   -2.4726    1.5863 C.ar    1  LIG1       -0.0542
     19 C           1.8796    0.0590   -1.6210 C.ar    1  LIG1        0.1278
     20 C           0.9861   -3.2637    1.4645 C.ar    1  LIG1        0.1208
     21 C          -3.2399   -1.1621   -0.7271 C.ar    1  LIG1       -0.0124
     22 C          -0.3776   -3.4987    1.7053 C.ar    1  LIG1       -0.0196
     23 C          -3.9298    0.9716    0.2035 C.ar    1  LIG1       -0.0543
     24 C           2.6179    1.8691   -0.2002 C.ar    1  LIG1       -0.0510
     25 C          -4.4335   -1.1813   -1.4213 C.ar    1  LIG1        0.1665
     26 C          -5.1210    0.9390   -0.5296 C.ar    1  LIG1       -0.0159
     27 C           2.8835    0.4033   -2.5369 C.ar    1  LIG1        0.0221
     28 C           3.6187    2.2012   -1.1161 C.ar    1  LIG1       -0.0194
     29 C          -5.3491   -0.1604   -1.3236 C.ar    1  LIG1        0.1662
     30 C           3.7671    1.4562   -2.2808 C.ar    1  LIG1        0.1236
     31 C           3.1269   -4.2251    1.0788 C.3     1  LIG1        0.0893
     32 C          -6.1342   -1.6593   -2.6601 C.3     1  LIG1        0.2332
     33 C           1.3588   -1.9812   -2.7395 C.3     1  LIG1        0.1126
     34 C           3.7241   -5.6065    0.8147 C.3     1  LIG1       -0.0215
     35 C           0.4061   -3.1546   -2.5459 C.3     1  LIG1        0.0783
     36 C           5.7102    2.6333   -2.9640 C.3     1  LIG1        0.0788
     37 C           3.7051   -6.5092    2.0375 C.3     1  LIG1       -0.0622
     38 H           0.1055   -4.9339   -3.2391 H       1  LIG1        0.2095
     39 H          -0.8375    1.0483   -0.7711 H       1  LIG1        0.0379
     40 H           1.0912    0.9171    1.6049 H       1  LIG1        0.0405
     41 H          -2.0119    0.3745    1.9783 H       1  LIG1        0.0404
     42 H           2.4640   -1.7265    1.0203 H       1  LIG1        0.0657
     43 H          -2.3686   -2.6622    1.7883 H       1  LIG1        0.0622
     44 H          -2.5310   -1.9712   -0.8578 H       1  LIG1        0.0658
     45 H          -0.7064   -4.4972    1.9819 H       1  LIG1        0.0654
     46 H          -3.7189    1.8433    0.8268 H       1  LIG1        0.0622
     47 H           2.4986    2.4784    0.6967 H       1  LIG1        0.0623
     48 H          -5.8281    1.7566   -0.4761 H       1  LIG1        0.0655
     49 H           2.9893   -0.1278   -3.4768 H       1  LIG1        0.0691
     50 H           4.2464    3.0549   -0.8897 H       1  LIG1        0.0654
     51 H           3.7187   -3.6979    1.8357 H       1  LIG1        0.0696
     52 H           3.1593   -3.6701    0.1338 H       1  LIG1        0.0696
     53 H          -6.9064   -2.3769   -2.3577 H       1  LIG1        0.1166
     54 H          -6.1509   -1.5707   -3.7528 H       1  LIG1        0.1166
     55 H           2.3838   -2.3189   -2.5380 H       1  LIG1        0.0720
     56 H           1.3008   -1.6367   -3.7786 H       1  LIG1        0.0720
     57 H           4.7546   -5.4914    0.4614 H       1  LIG1        0.0295
     58 H           3.1549   -6.0975    0.0154 H       1  LIG1        0.0295
     59 H           0.4576   -3.5238   -1.5169 H       1  LIG1        0.0591
     60 H          -0.6275   -2.8458   -2.7359 H       1  LIG1        0.0591
     61 H           6.4327    2.6221   -3.7866 H       1  LIG1        0.0660
     62 H           6.2531    2.3887   -2.0448 H       1  LIG1        0.0660
     63 H           5.2775    3.6374   -2.9144 H       1  LIG1        0.0660
     64 H           4.2429   -6.0514    2.8723 H       1  LIG1        0.0231
     65 H           4.1859   -7.4656    1.8050 H       1  LIG1        0.0231
     66 H           2.6802   -6.7215    2.3598 H       1  LIG1        0.0231
@<TRIPOS>BOND
     1     1    16   ar
     2     2    16   ar
     3     3    20    1
     4     3    31    1
     5     4    19    1
     6     4    33    1
     7     5    25    1
     8     5    32    1
     9     6    29    1
    10     6    32    1
    11     7    30    1
    12     7    36    1
    13     8    35    1
    14     9    10    1
    15     9    11    1
    16     9    16    1
    17    10    12    1
    18    10    14    1
    19    11    13    1
    20    11    15    1
    21    12    13   ar
    22    12    17   ar
    23    13    18   ar
    24    14    19   ar
    25    14    24   ar
    26    15    21   ar
    27    15    23   ar
    28    17    20   ar
    29    18    22   ar
    30    19    27   ar
    31    20    22   ar
    32    21    25   ar
    33    23    26   ar
    34    24    28   ar
    35    25    29   ar
    36    26    29   ar
    37    27    30   ar
    38    28    30   ar
    39    31    34    1
    40    33    35    1
    41    34    37    1
    42     8    38    1
    43     9    39    1
    44    10    40    1
    45    11    41    1
    46    17    42    1
    47    18    43    1
    48    21    44    1
    49    22    45    1
    50    23    46    1
    51    24    47    1
    52    26    48    1
    53    27    49    1
    54    28    50    1
    55    31    51    1
    56    31    52    1
    57    32    53    1
    58    32    54    1
    59    33    55    1
    60    33    56    1
    61    34    57    1
    62    34    58    1
    63    35    59    1
    64    35    60    1
    65    36    61    1
    66    36    62    1
    67    36    63    1
    68    37    64    1
    69    37    65    1
    70    37    66    1
@<TRIPOS>MOLECULE
178103
 66 70 0 0 0
SMALL
GASTEIGER

@<TRIPOS>ATOM
      1 O           0.1795    3.2440    0.8563 O.co2   1  LIG1       -0.5495
      2 O          -1.7041    2.6551    1.9705 O.co2   1  LIG1       -0.5495
      3 O           1.6473   -4.4059    1.2981 O.3     1  LIG1       -0.4920
      4 O           0.4060   -0.4389   -2.1358 O.3     1  LIG1       -0.4893
      5 O          -5.0108   -2.1619   -2.1355 O.3     1  LIG1       -0.4526
      6 O          -6.4895   -0.2549   -2.1629 O.3     1  LIG1       -0.4526
      7 O           4.6911    1.6364   -3.2830 O.3     1  LIG1       -0.4950
      8 O          -1.7657   -1.6104   -3.6304 O.3     1  LIG1       -0.3917
      9 C          -0.7572    1.1052    0.4206 C.3     1  LIG1        0.0203
     10 C           0.6573    0.5020    0.6039 C.3     1  LIG1        0.0218
     11 C          -1.7862    0.0872    0.9934 C.3     1  LIG1        0.0184
     12 C           0.3805   -0.9620    0.8584 C.ar    1  LIG1       -0.0320
     13 C          -0.9670   -1.1801    1.1378 C.ar    1  LIG1       -0.0353
     14 C           1.6575    0.7696   -0.5174 C.ar    1  LIG1        0.0025
     15 C          -3.0448   -0.0087    0.1212 C.ar    1  LIG1       -0.0356
     16 C          -0.7605    2.4536    1.1557 C.2     1  LIG1        0.0466
     17 C           1.3082   -1.9996    0.9271 C.ar    1  LIG1       -0.0159
     18 C          -1.3945   -2.4308    1.5679 C.ar    1  LIG1       -0.0542
     19 C           1.5366    0.2769   -1.8281 C.ar    1  LIG1        0.1278
     20 C           0.8666   -3.2809    1.2595 C.ar    1  LIG1        0.1208
     21 C          -3.3736   -1.1378   -0.6487 C.ar    1  LIG1       -0.0124
     22 C          -0.4761   -3.4830    1.6090 C.ar    1  LIG1       -0.0196
     23 C          -3.9341    1.0964    0.0967 C.ar    1  LIG1       -0.0543
     24 C           2.7907    1.5435   -0.2027 C.ar    1  LIG1       -0.0510
     25 C          -4.5490   -1.1335   -1.3730 C.ar    1  LIG1        0.1665
     26 C          -5.1109    1.0841   -0.6621 C.ar    1  LIG1       -0.0159
     27 C           2.5278    0.5636   -2.7845 C.ar    1  LIG1        0.0221
     28 C           3.7810    1.8015   -1.1505 C.ar    1  LIG1       -0.0194
     29 C          -5.3933   -0.0517   -1.3838 C.ar    1  LIG1        0.1662
     30 C           3.6564    1.3132   -2.4464 C.ar    1  LIG1        0.1236
     31 C           2.9131   -4.3152    0.6434 C.3     1  LIG1        0.0893
     32 C          -6.2302   -1.5894   -2.6439 C.3     1  LIG1        0.2332
     33 C           0.5862   -1.4935   -3.0861 C.3     1  LIG1        0.1126
     34 C           3.4662   -5.7245    0.4399 C.3     1  LIG1       -0.0215
     35 C          -0.6728   -2.3512   -3.0897 C.3     1  LIG1        0.0783
     36 C           4.5545    1.2605   -4.6462 C.3     1  LIG1        0.0788
     37 C           3.7164   -6.4521    1.7523 C.3     1  LIG1       -0.0622
     38 H          -1.8663   -0.8283   -3.0497 H       1  LIG1        0.2095
     39 H          -0.9640    1.3152   -0.6374 H       1  LIG1        0.0379
     40 H           1.0909    0.8656    1.5482 H       1  LIG1        0.0405
     41 H          -2.1093    0.3432    2.0105 H       1  LIG1        0.0404
     42 H           2.3501   -1.7811    0.7244 H       1  LIG1        0.0657
     43 H          -2.4307   -2.5946    1.8478 H       1  LIG1        0.0622
     44 H          -2.7385   -2.0127   -0.6928 H       1  LIG1        0.0658
     45 H          -0.8093   -4.4724    1.9095 H       1  LIG1        0.0654
     46 H          -3.7006    1.9858    0.6842 H       1  LIG1        0.0622
     47 H           2.8872    1.9789    0.7914 H       1  LIG1        0.0623
     48 H          -5.7729    1.9411   -0.6725 H       1  LIG1        0.0655
     49 H           2.3988    0.2178   -3.8004 H       1  LIG1        0.0691
     50 H           4.6372    2.4106   -0.8752 H       1  LIG1        0.0654
     51 H           3.6055   -3.7259    1.2559 H       1  LIG1        0.0696
     52 H           2.8065   -3.8497   -0.3446 H       1  LIG1        0.0696
     53 H          -7.0669   -2.2340   -2.3496 H       1  LIG1        0.1166
     54 H          -6.1774   -1.5652   -3.7386 H       1  LIG1        0.1166
     55 H           1.4482   -2.1121   -2.8104 H       1  LIG1        0.0720
     56 H           0.7189   -1.0682   -4.0868 H       1  LIG1        0.0720
     57 H           4.4020   -5.6681   -0.1270 H       1  LIG1        0.0295
     58 H           2.7541   -6.3126   -0.1512 H       1  LIG1        0.0295
     59 H          -0.5298   -3.2350   -3.7176 H       1  LIG1        0.0591
     60 H          -0.9398   -2.6740   -2.0799 H       1  LIG1        0.0591
     61 H           5.4374    1.6219   -5.1824 H       1  LIG1        0.0660
     62 H           3.6749    1.7280   -5.1010 H       1  LIG1        0.0660
     63 H           4.5251    0.1711   -4.7535 H       1  LIG1        0.0660
     64 H           4.4277   -5.9015    2.3757 H       1  LIG1        0.0231
     65 H           4.1333   -7.4454    1.5574 H       1  LIG1        0.0231
     66 H           2.7894   -6.5829    2.3191 H       1  LIG1        0.0231
@<TRIPOS>BOND
     1     1    16   ar
     2     2    16   ar
     3     3    20    1
     4     3    31    1
     5     4    19    1
     6     4    33    1
     7     5    25    1
     8     5    32    1
     9     6    29    1
    10     6    32    1
    11     7    30    1
    12     7    36    1
    13     8    35    1
    14     9    10    1
    15     9    11    1
    16     9    16    1
    17    10    12    1
    18    10    14    1
    19    11    13    1
    20    11    15    1
    21    12    13   ar
    22    12    17   ar
    23    13    18   ar
    24    14    19   ar
    25    14    24   ar
    26    15    21   ar
    27    15    23   ar
    28    17    20   ar
    29    18    22   ar
    30    19    27   ar
    31    20    22   ar
    32    21    25   ar
    33    23    26   ar
    34    24    28   ar
    35    25    29   ar
    36    26    29   ar
    37    27    30   ar
    38    28    30   ar
    39    31    34    1
    40    33    35    1
    41    34    37    1
    42     8    38    1
    43     9    39    1
    44    10    40    1
    45    11    41    1
    46    17    42    1
    47    18    43    1
    48    21    44    1
    49    22    45    1
    50    23    46    1
    51    24    47    1
    52    26    48    1
    53    27    49    1
    54    28    50    1
    55    31    51    1
    56    31    52    1
    57    32    53    1
    58    32    54    1
    59    33    55    1
    60    33    56    1
    61    34    57    1
    62    34    58    1
    63    35    59    1
    64    35    60    1
    65    36    61    1
    66    36    62    1
    67    36    63    1
    68    37    64    1
    69    37    65    1
    70    37    66    1
@<TRIPOS>MOLECULE
178103
 66 70 0 0 0
SMALL
GASTEIGER

@<TRIPOS>ATOM
      1 O          -0.7579    2.4795    2.1114 O.co2   1  LIG1       -0.5495
      2 O          -1.0186    3.2925    0.0043 O.co2   1  LIG1       -0.5495
      3 O           1.8636   -4.1803    1.9471 O.3     1  LIG1       -0.4920
      4 O           0.9845   -1.0295   -1.8172 O.3     1  LIG1       -0.4893
      5 O          -4.8904   -2.1390   -2.3103 O.3     1  LIG1       -0.4526
      6 O          -6.4749   -0.3243   -2.1499 O.3     1  LIG1       -0.4526
      7 O           4.7309    1.5684   -3.2215 O.3     1  LIG1       -0.4950
      8 O           0.7066   -4.2851   -3.4418 O.3     1  LIG1       -0.3917
      9 C          -0.6977    0.9708    0.2737 C.3     1  LIG1        0.0203
     10 C           0.6959    0.4387    0.6632 C.3     1  LIG1        0.0218
     11 C          -1.7465    0.0466    0.9329 C.3     1  LIG1        0.0184
     12 C           0.4135   -1.0039    1.0160 C.ar    1  LIG1       -0.0320
     13 C          -0.9564   -1.2223    1.1792 C.ar    1  LIG1       -0.0353
     14 C           1.7540    0.7041   -0.4017 C.ar    1  LIG1        0.0025
     15 C          -3.0099   -0.0645    0.0836 C.ar    1  LIG1       -0.0356
     16 C          -0.8325    2.3760    0.8526 C.2     1  LIG1        0.0466
     17 C           1.3334   -2.0120    1.2841 C.ar    1  LIG1       -0.0159
     18 C          -1.4197   -2.4519    1.6301 C.ar    1  LIG1       -0.0542
     19 C           1.8940   -0.0316   -1.5922 C.ar    1  LIG1        0.1278
     20 C           0.8758   -3.2609    1.7132 C.ar    1  LIG1        0.1208
     21 C          -3.2755   -1.1453   -0.7746 C.ar    1  LIG1       -0.0124
     22 C          -0.5003   -3.4786    1.8775 C.ar    1  LIG1       -0.0196
     23 C          -3.9456    1.0002    0.1475 C.ar    1  LIG1       -0.0543
     24 C           2.6206    1.7921   -0.1835 C.ar    1  LIG1       -0.0510
     25 C          -4.4659   -1.1512   -1.4740 C.ar    1  LIG1        0.1665
     26 C          -5.1335    0.9794   -0.5903 C.ar    1  LIG1       -0.0159
     27 C           2.9050    0.3059   -2.5036 C.ar    1  LIG1        0.0221
     28 C           3.6276    2.1176   -1.0947 C.ar    1  LIG1       -0.0194
     29 C          -5.3705   -0.1194   -1.3827 C.ar    1  LIG1        0.1662
     30 C           3.7828    1.3651   -2.2534 C.ar    1  LIG1        0.1236
     31 C           1.4815   -5.3822    2.6113 C.3     1  LIG1        0.0893
     32 C          -6.1675   -1.6111   -2.7200 C.3     1  LIG1        0.2332
     33 C           1.3605   -2.0627   -2.7221 C.3     1  LIG1        0.1126
     34 C           2.7416   -6.1651    2.9762 C.3     1  LIG1       -0.0215
     35 C           0.4040   -3.2329   -2.5286 C.3     1  LIG1        0.0783
     36 C           5.7029    2.5706   -2.9534 C.3     1  LIG1        0.0788
     37 C           3.5276   -6.6099    1.7512 C.3     1  LIG1       -0.0622
     38 H           0.0662   -4.9926   -3.2558 H       1  LIG1        0.2095
     39 H          -0.8242    0.9961   -0.8177 H       1  LIG1        0.0379
     40 H           1.0493    0.8858    1.6034 H       1  LIG1        0.0405
     41 H          -2.0533    0.4022    1.9261 H       1  LIG1        0.0404
     42 H           2.3970   -1.8235    1.1763 H       1  LIG1        0.0657
     43 H          -2.4805   -2.6118    1.7976 H       1  LIG1        0.0622
     44 H          -2.5743   -1.9620   -0.8967 H       1  LIG1        0.0658
     45 H          -0.8888   -4.4336    2.2123 H       1  LIG1        0.0654
     46 H          -3.7270    1.8686    0.7717 H       1  LIG1        0.0622
     47 H           2.4924    2.4117    0.7043 H       1  LIG1        0.0623
     48 H          -5.8328    1.8046   -0.5406 H       1  LIG1        0.0655
     49 H           3.0193   -0.2337   -3.4375 H       1  LIG1        0.0691
     50 H           4.2521    2.9746   -0.8704 H       1  LIG1        0.0654
     51 H           0.8463   -5.9890    1.9551 H       1  LIG1        0.0696
     52 H           0.9419   -5.1499    3.5375 H       1  LIG1        0.0696
     53 H          -6.9497   -2.3192   -2.4213 H       1  LIG1        0.1166
     54 H          -6.1767   -1.5229   -3.8125 H       1  LIG1        0.1166
     55 H           2.3860   -2.4073   -2.5370 H       1  LIG1        0.0720
     56 H           1.2913   -1.7054   -3.7564 H       1  LIG1        0.0720
     57 H           2.4637   -7.0455    3.5660 H       1  LIG1        0.0295
     58 H           3.3932   -5.5393    3.5973 H       1  LIG1        0.0295
     59 H           0.4776   -3.6210   -1.5074 H       1  LIG1        0.0591
     60 H          -0.6311   -2.9121   -2.6875 H       1  LIG1        0.0591
     61 H           6.4205    2.5690   -3.7796 H       1  LIG1        0.0660
     62 H           6.2568    2.3513   -2.0342 H       1  LIG1        0.0660
     63 H           5.2445    3.5641   -2.9129 H       1  LIG1        0.0660
     64 H           2.9167   -7.2481    1.1050 H       1  LIG1        0.0231
     65 H           4.4094   -7.1819    2.0573 H       1  LIG1        0.0231
     66 H           3.8707   -5.7525    1.1638 H       1  LIG1        0.0231
@<TRIPOS>BOND
     1     1    16   ar
     2     2    16   ar
     3     3    20    1
     4     3    31    1
     5     4    19    1
     6     4    33    1
     7     5    25    1
     8     5    32    1
     9     6    29    1
    10     6    32    1
    11     7    30    1
    12     7    36    1
    13     8    35    1
    14     9    10    1
    15     9    11    1
    16     9    16    1
    17    10    12    1
    18    10    14    1
    19    11    13    1
    20    11    15    1
    21    12    13   ar
    22    12    17   ar
    23    13    18   ar
    24    14    19   ar
    25    14    24   ar
    26    15    21   ar
    27    15    23   ar
    28    17    20   ar
    29    18    22   ar
    30    19    27   ar
    31    20    22   ar
    32    21    25   ar
    33    23    26   ar
    34    24    28   ar
    35    25    29   ar
    36    26    29   ar
    37    27    30   ar
    38    28    30   ar
    39    31    34    1
    40    33    35    1
    41    34    37    1
    42     8    38    1
    43     9    39    1
    44    10    40    1
    45    11    41    1
    46    17    42    1
    47    18    43    1
    48    21    44    1
    49    22    45    1
    50    23    46    1
    51    24    47    1
    52    26    48    1
    53    27    49    1
    54    28    50    1
    55    31    51    1
    56    31    52    1
    57    32    53    1
    58    32    54    1
    59    33    55    1
    60    33    56    1
    61    34    57    1
    62    34    58    1
    63    35    59    1
    64    35    60    1
    65    36    61    1
    66    36    62    1
    67    36    63    1
    68    37    64    1
    69    37    65    1
    70    37    66    1
@<TRIPOS>MOLECULE
178103
 66 70 0 0 0
SMALL
GASTEIGER

@<TRIPOS>ATOM
      1 O          -0.5664    2.3639    2.4832 O.co2   1  LIG1       -0.5495
      2 O          -1.0924    3.4562    0.5541 O.co2   1  LIG1       -0.5495
      3 O           1.7476   -4.3711    1.2765 O.3     1  LIG1       -0.4920
      4 O           3.5643    0.8267    1.2684 O.3     1  LIG1       -0.4893
      5 O          -6.3848   -1.3597    0.3226 O.3     1  LIG1       -0.4526
      6 O          -6.5862   -0.4378   -1.8992 O.3     1  LIG1       -0.4526
      7 O           4.6530    1.4522   -3.4527 O.3     1  LIG1       -0.4950
      8 O           5.0311    0.3804    3.6839 O.3     1  LIG1       -0.3917
      9 C          -0.6028    1.1616    0.4337 C.3     1  LIG1        0.0203
     10 C           0.8000    0.5504    0.6947 C.3     1  LIG1        0.0218
     11 C          -1.6805    0.1406    0.8921 C.3     1  LIG1        0.0184
     12 C           0.4826   -0.9220    0.8219 C.ar    1  LIG1       -0.0320
     13 C          -0.8904   -1.1596    0.8993 C.ar    1  LIG1       -0.0353
     14 C           1.8550    0.8162   -0.3864 C.ar    1  LIG1        0.0025
     15 C          -2.9838    0.0717    0.0848 C.ar    1  LIG1       -0.0356
     16 C          -0.7688    2.4443    1.2399 C.2     1  LIG1        0.0466
     17 C           1.4077   -1.9595    0.9417 C.ar    1  LIG1       -0.0159
     18 C          -1.3483   -2.4597    1.0852 C.ar    1  LIG1       -0.0542
     19 C           3.2116    0.9949   -0.0496 C.ar    1  LIG1        0.1278
     20 C           0.9540   -3.2638    1.1265 C.ar    1  LIG1        0.1208
     21 C          -4.0963   -0.5799    0.6614 C.ar    1  LIG1       -0.0124
     22 C          -0.4238   -3.5067    1.1886 C.ar    1  LIG1       -0.0196
     23 C          -3.1355    0.6129   -1.2146 C.ar    1  LIG1       -0.0543
     24 C           1.5175    0.8189   -1.7515 C.ar    1  LIG1       -0.0510
     25 C          -5.2553   -0.7138   -0.0769 C.ar    1  LIG1        0.1665
     26 C          -4.3341    0.4890   -1.9321 C.ar    1  LIG1       -0.0159
     27 C           4.1789    1.2060   -1.0469 C.ar    1  LIG1        0.0221
     28 C           2.4795    1.0509   -2.7369 C.ar    1  LIG1       -0.0194
     29 C          -5.3702   -0.1939   -1.3415 C.ar    1  LIG1        0.1662
     30 C           3.8116    1.2548   -2.3915 C.ar    1  LIG1        0.1236
     31 C           3.1577   -4.1465    1.2478 C.3     1  LIG1        0.0893
     32 C          -7.2103   -1.2019   -0.8486 C.3     1  LIG1        0.2332
     33 C           4.5352    1.7605    1.7565 C.3     1  LIG1        0.1126
     34 C           3.8789   -5.4746    1.4661 C.3     1  LIG1       -0.0215
     35 C           4.5503    1.6657    3.2793 C.3     1  LIG1        0.0783
     36 C           5.9998    1.7887   -3.1449 C.3     1  LIG1        0.0788
     37 C           3.6394   -6.0386    2.8592 C.3     1  LIG1       -0.0622
     38 H           4.3867   -0.2543    3.3159 H       1  LIG1        0.2095
     39 H          -0.7126    1.4295   -0.6144 H       1  LIG1        0.0379
     40 H           1.1858    0.8898    1.6632 H       1  LIG1        0.0405
     41 H          -1.9664    0.3449    1.9336 H       1  LIG1        0.0404
     42 H           2.4619   -1.7159    0.9031 H       1  LIG1        0.0657
     43 H          -2.4057   -2.6795    1.1735 H       1  LIG1        0.0622
     44 H          -4.0438   -0.9871    1.6662 H       1  LIG1        0.0658
     45 H          -0.7818   -4.5208    1.3423 H       1  LIG1        0.0654
     46 H          -2.3294    1.1572   -1.6965 H       1  LIG1        0.0622
     47 H           0.4971    0.6270   -2.0729 H       1  LIG1        0.0623
     48 H          -4.4350    0.9183   -2.9214 H       1  LIG1        0.0655
     49 H           5.2192    1.2909   -0.7644 H       1  LIG1        0.0691
     50 H           2.1805    1.0628   -3.7816 H       1  LIG1        0.0654
     51 H           3.4527   -3.4423    2.0360 H       1  LIG1        0.0696
     52 H           3.4483   -3.7498    0.2674 H       1  LIG1        0.0696
     53 H          -8.1412   -0.7027   -0.5566 H       1  LIG1        0.1166
     54 H          -7.4559   -2.1962   -1.2404 H       1  LIG1        0.1166
     55 H           4.2781    2.7812    1.4514 H       1  LIG1        0.0720
     56 H           5.5260    1.4836    1.3788 H       1  LIG1        0.0720
     57 H           4.9549   -5.3303    1.3179 H       1  LIG1        0.0295
     58 H           3.5337   -6.2074    0.7278 H       1  LIG1        0.0295
     59 H           5.2183    2.4204    3.7037 H       1  LIG1        0.0591
     60 H           3.5480    1.7954    3.6990 H       1  LIG1        0.0591
     61 H           6.5156    1.9942   -4.0879 H       1  LIG1        0.0660
     62 H           6.5122    0.9503   -2.6620 H       1  LIG1        0.0660
     63 H           6.0555    2.6942   -2.5312 H       1  LIG1        0.0660
     64 H           3.9814   -5.3386    3.6286 H       1  LIG1        0.0231
     65 H           4.1903   -6.9760    2.9859 H       1  LIG1        0.0231
     66 H           2.5783   -6.2448    3.0290 H       1  LIG1        0.0231
@<TRIPOS>BOND
     1     1    16   ar
     2     2    16   ar
     3     3    20    1
     4     3    31    1
     5     4    19    1
     6     4    33    1
     7     5    25    1
     8     5    32    1
     9     6    29    1
    10     6    32    1
    11     7    30    1
    12     7    36    1
    13     8    35    1
    14     9    10    1
    15     9    11    1
    16     9    16    1
    17    10    12    1
    18    10    14    1
    19    11    13    1
    20    11    15    1
    21    12    13   ar
    22    12    17   ar
    23    13    18   ar
    24    14    19   ar
    25    14    24   ar
    26    15    21   ar
    27    15    23   ar
    28    17    20   ar
    29    18    22   ar
    30    19    27   ar
    31    20    22   ar
    32    21    25   ar
    33    23    26   ar
    34    24    28   ar
    35    25    29   ar
    36    26    29   ar
    37    27    30   ar
    38    28    30   ar
    39    31    34    1
    40    33    35    1
    41    34    37    1
    42     8    38    1
    43     9    39    1
    44    10    40    1
    45    11    41    1
    46    17    42    1
    47    18    43    1
    48    21    44    1
    49    22    45    1
    50    23    46    1
    51    24    47    1
    52    26    48    1
    53    27    49    1
    54    28    50    1
    55    31    51    1
    56    31    52    1
    57    32    53    1
    58    32    54    1
    59    33    55    1
    60    33    56    1
    61    34    57    1
    62    34    58    1
    63    35    59    1
    64    35    60    1
    65    36    61    1
    66    36    62    1
    67    36    63    1
    68    37    64    1
    69    37    65    1
    70    37    66    1
@<TRIPOS>MOLECULE
178103
 66 70 0 0 0
SMALL
GASTEIGER

@<TRIPOS>ATOM
      1 O          -0.9014    3.3057   -0.0949 O.co2   1  LIG1       -0.5495
      2 O          -0.8556    2.5071    2.0349 O.co2   1  LIG1       -0.5495
      3 O           1.8336   -4.1811    1.8273 O.3     1  LIG1       -0.4920
      4 O           0.6444   -0.7126   -2.0506 O.3     1  LIG1       -0.4893
      5 O          -5.0957   -2.1368   -2.1699 O.3     1  LIG1       -0.4526
      6 O          -6.5738   -0.2302   -2.1104 O.3     1  LIG1       -0.4526
      7 O           4.8028    1.3002   -3.2370 O.3     1  LIG1       -0.4950
      8 O          -0.9437   -2.8746   -2.8263 O.3     1  LIG1       -0.3917
      9 C          -0.7523    0.9752    0.2202 C.3     1  LIG1        0.0203
     10 C           0.6480    0.4419    0.5887 C.3     1  LIG1        0.0218
     11 C          -1.7920    0.0568    0.9084 C.3     1  LIG1        0.0184
     12 C           0.3658   -1.0046    0.9270 C.ar    1  LIG1       -0.0320
     13 C          -0.9999   -1.2162    1.1300 C.ar    1  LIG1       -0.0353
     14 C           1.7235    0.6731   -0.4665 C.ar    1  LIG1        0.0025
     15 C          -3.0794   -0.0406    0.0917 C.ar    1  LIG1       -0.0356
     16 C          -0.8394    2.3920    0.7762 C.2     1  LIG1        0.0466
     17 C           1.2893   -2.0179    1.1607 C.ar    1  LIG1       -0.0159
     18 C          -1.4521   -2.4437    1.5976 C.ar    1  LIG1       -0.0542
     19 C           1.7025    0.1035   -1.7522 C.ar    1  LIG1        0.1278
     20 C           0.8412   -3.2626    1.6095 C.ar    1  LIG1        0.1208
     21 C          -3.4243   -1.1557   -0.6901 C.ar    1  LIG1       -0.0124
     22 C          -0.5296   -3.4745    1.8162 C.ar    1  LIG1       -0.0196
     23 C          -3.9597    1.0728    0.1070 C.ar    1  LIG1       -0.0543
     24 C           2.7950    1.5218   -0.1299 C.ar    1  LIG1       -0.0510
     25 C          -4.6167   -1.1324   -1.3858 C.ar    1  LIG1        0.1665
     26 C          -5.1559    1.0756   -0.6190 C.ar    1  LIG1       -0.0159
     27 C           2.7597    0.3494   -2.6396 C.ar    1  LIG1        0.0221
     28 C           3.8408    1.7663   -1.0234 C.ar    1  LIG1       -0.0194
     29 C          -5.4594   -0.0477   -1.3516 C.ar    1  LIG1        0.1662
     30 C           3.8344    1.1659   -2.2775 C.ar    1  LIG1        0.1236
     31 C           1.4721   -5.3610    2.5409 C.3     1  LIG1        0.0893
     32 C          -6.3333   -1.5561   -2.6222 C.3     1  LIG1        0.2332
     33 C           0.3659   -0.9341   -3.4347 C.3     1  LIG1        0.1126
     34 C           2.7447   -6.1164    2.9207 C.3     1  LIG1       -0.0215
     35 C          -0.9896   -1.6258   -3.5193 C.3     1  LIG1        0.0783
     36 C           6.0125    1.9246   -2.8277 C.3     1  LIG1        0.0788
     37 C           3.5278   -6.5919    1.7056 C.3     1  LIG1       -0.0622
     38 H          -0.5848   -2.6577   -1.9403 H       1  LIG1        0.2095
     39 H          -0.9075    0.9945   -0.8666 H       1  LIG1        0.0379
     40 H           0.9951    0.8870    1.5324 H       1  LIG1        0.0405
     41 H          -2.0709    0.4135    1.9090 H       1  LIG1        0.0404
     42 H           2.3504   -1.8345    1.0232 H       1  LIG1        0.0657
     43 H          -2.5071   -2.6010    1.8009 H       1  LIG1        0.0622
     44 H          -2.7803   -2.0229   -0.7734 H       1  LIG1        0.0658
     45 H          -0.9111   -4.4283    2.1623 H       1  LIG1        0.0654
     46 H          -3.6919    1.9598    0.6842 H       1  LIG1        0.0622
     47 H           2.8096    2.0114    0.8433 H       1  LIG1        0.0623
     48 H          -5.8103    1.9387   -0.6076 H       1  LIG1        0.0655
     49 H           2.7829   -0.1027   -3.6247 H       1  LIG1        0.0691
     50 H           4.6318    2.4358   -0.7063 H       1  LIG1        0.0654
     51 H           0.8351   -5.9969    1.9149 H       1  LIG1        0.0696
     52 H           0.9416   -5.1017    3.4653 H       1  LIG1        0.0696
     53 H          -7.1590   -2.2057   -2.3086 H       1  LIG1        0.1166
     54 H          -6.3208   -1.5130   -3.7174 H       1  LIG1        0.1166
     55 H           1.1310   -1.5966   -3.8545 H       1  LIG1        0.0720
     56 H           0.3266    0.0133   -3.9845 H       1  LIG1        0.0720
     57 H           2.4822   -6.9799    3.5419 H       1  LIG1        0.0295
     58 H           3.3930   -5.4625    3.5158 H       1  LIG1        0.0295
     59 H          -1.7695   -1.0122   -3.0611 H       1  LIG1        0.0591
     60 H          -1.2615   -1.8219   -4.5602 H       1  LIG1        0.0591
     61 H           6.7167    1.8665   -3.6634 H       1  LIG1        0.0660
     62 H           6.4629    1.4000   -1.9781 H       1  LIG1        0.0660
     63 H           5.8527    2.9834   -2.6006 H       1  LIG1        0.0660
     64 H           2.9201   -7.2573    1.0844 H       1  LIG1        0.0231
     65 H           4.4178   -7.1438    2.0243 H       1  LIG1        0.0231
     66 H           3.8578   -5.7501    1.0888 H       1  LIG1        0.0231
@<TRIPOS>BOND
     1     1    16   ar
     2     2    16   ar
     3     3    20    1
     4     3    31    1
     5     4    19    1
     6     4    33    1
     7     5    25    1
     8     5    32    1
     9     6    29    1
    10     6    32    1
    11     7    30    1
    12     7    36    1
    13     8    35    1
    14     9    10    1
    15     9    11    1
    16     9    16    1
    17    10    12    1
    18    10    14    1
    19    11    13    1
    20    11    15    1
    21    12    13   ar
    22    12    17   ar
    23    13    18   ar
    24    14    19   ar
    25    14    24   ar
    26    15    21   ar
    27    15    23   ar
    28    17    20   ar
    29    18    22   ar
    30    19    27   ar
    31    20    22   ar
    32    21    25   ar
    33    23    26   ar
    34    24    28   ar
    35    25    29   ar
    36    26    29   ar
    37    27    30   ar
    38    28    30   ar
    39    31    34    1
    40    33    35    1
    41    34    37    1
    42     8    38    1
    43     9    39    1
    44    10    40    1
    45    11    41    1
    46    17    42    1
    47    18    43    1
    48    21    44    1
    49    22    45    1
    50    23    46    1
    51    24    47    1
    52    26    48    1
    53    27    49    1
    54    28    50    1
    55    31    51    1
    56    31    52    1
    57    32    53    1
    58    32    54    1
    59    33    55    1
    60    33    56    1
    61    34    57    1
    62    34    58    1
    63    35    59    1
    64    35    60    1
    65    36    61    1
    66    36    62    1
    67    36    63    1
    68    37    64    1
    69    37    65    1
    70    37    66    1
@<TRIPOS>MOLECULE
178103
 66 70 0 0 0
SMALL
GASTEIGER

@<TRIPOS>ATOM
      1 O          -0.3938    2.5579    2.2260 O.co2   1  LIG1       -0.5495
      2 O          -1.5534    3.3227    0.4249 O.co2   1  LIG1       -0.5495
      3 O           1.5663   -4.3350    1.7060 O.3     1  LIG1       -0.4920
      4 O           0.6995   -0.6795   -1.9807 O.3     1  LIG1       -0.4893
      5 O          -6.6880    0.4464    0.3323 O.3     1  LIG1       -0.4526
      6 O          -6.5887   -0.2103   -1.9883 O.3     1  LIG1       -0.4526
      7 O           4.5980    1.7178   -3.3338 O.3     1  LIG1       -0.4950
      8 O          -0.9592   -3.0164   -2.2933 O.3     1  LIG1       -0.3917
      9 C          -0.6940    1.1302    0.3466 C.3     1  LIG1        0.0203
     10 C           0.6890    0.5174    0.6542 C.3     1  LIG1        0.0218
     11 C          -1.7636    0.1702    0.9233 C.3     1  LIG1        0.0184
     12 C           0.3693   -0.9356    0.9084 C.ar    1  LIG1       -0.0320
     13 C          -1.0050   -1.1375    1.0414 C.ar    1  LIG1       -0.0353
     14 C           1.7266    0.7883   -0.4322 C.ar    1  LIG1        0.0025
     15 C          -3.0319    0.0664    0.0869 C.ar    1  LIG1       -0.0356
     16 C          -0.8943    2.4605    1.0690 C.2     1  LIG1        0.0466
     17 C           1.2756   -1.9714    1.1064 C.ar    1  LIG1       -0.0159
     18 C          -1.4996   -2.3984    1.3418 C.ar    1  LIG1       -0.0542
     19 C           1.6993    0.2189   -1.7200 C.ar    1  LIG1        0.1278
     20 C           0.7916   -3.2372    1.4339 C.ar    1  LIG1        0.1208
     21 C          -4.2761    0.3372    0.6834 C.ar    1  LIG1       -0.0124
     22 C          -0.5941   -3.4506    1.5199 C.ar    1  LIG1       -0.0196
     23 C          -2.9934   -0.3050   -1.2786 C.ar    1  LIG1       -0.0543
     24 C           2.7580    1.6945   -0.1186 C.ar    1  LIG1       -0.0510
     25 C          -5.4133    0.2200   -0.0886 C.ar    1  LIG1        0.1665
     26 C          -4.1626   -0.4271   -2.0352 C.ar    1  LIG1       -0.0159
     27 C           2.6630    0.6034   -2.6622 C.ar    1  LIG1        0.0221
     28 C           3.7478    2.0213   -1.0476 C.ar    1  LIG1       -0.0194
     29 C          -5.3576   -0.1551   -1.4107 C.ar    1  LIG1        0.1662
     30 C           3.7023    1.4771   -2.3254 C.ar    1  LIG1        0.1236
     31 C           2.9183   -4.0979    2.1099 C.3     1  LIG1        0.0893
     32 C          -7.4140    0.2337   -0.8931 C.3     1  LIG1        0.2332
     33 C           0.8623   -1.5911   -3.0712 C.3     1  LIG1        0.1126
     34 C           2.9937   -3.5420    3.5329 C.3     1  LIG1       -0.0215
     35 C           0.4233   -2.9841   -2.6236 C.3     1  LIG1        0.0783
     36 C           5.7465    2.4839   -2.9914 C.3     1  LIG1        0.0788
     37 C           4.4249   -3.2567    3.9545 C.3     1  LIG1       -0.0622
     38 H          -1.0435   -2.4755   -1.4823 H       1  LIG1        0.2095
     39 H          -0.8228    1.2926   -0.7310 H       1  LIG1        0.0379
     40 H           1.0933    0.8802    1.6075 H       1  LIG1        0.0405
     41 H          -2.0364    0.4602    1.9478 H       1  LIG1        0.0404
     42 H           2.3317   -1.7520    1.0172 H       1  LIG1        0.0657
     43 H          -2.5660   -2.5641    1.4583 H       1  LIG1        0.0622
     44 H          -4.3455    0.6506    1.7200 H       1  LIG1        0.0658
     45 H          -0.9680   -4.4405    1.7670 H       1  LIG1        0.0654
     46 H          -2.0361   -0.4860   -1.7620 H       1  LIG1        0.0622
     47 H           2.7811    2.1645    0.8650 H       1  LIG1        0.0623
     48 H          -4.1230   -0.7141   -3.0787 H       1  LIG1        0.0655
     49 H           2.6252    0.2457   -3.6851 H       1  LIG1        0.0691
     50 H           4.5156    2.7227   -0.7424 H       1  LIG1        0.0654
     51 H           3.4583   -3.4836    1.3813 H       1  LIG1        0.0696
     52 H           3.4163   -5.0751    2.0921 H       1  LIG1        0.0696
     53 H          -7.9022    1.1729   -1.1806 H       1  LIG1        0.1166
     54 H          -8.1886   -0.5204   -0.7130 H       1  LIG1        0.1166
     55 H           1.8987   -1.6807   -3.4101 H       1  LIG1        0.0720
     56 H           0.2330   -1.2378   -3.8943 H       1  LIG1        0.0720
     57 H           2.5355   -4.2578    4.2262 H       1  LIG1        0.0295
     58 H           2.4062   -2.6219    3.6249 H       1  LIG1        0.0295
     59 H           0.5889   -3.7038   -3.4309 H       1  LIG1        0.0591
     60 H           0.9907   -3.3105   -1.7475 H       1  LIG1        0.0591
     61 H           6.3874    2.5369   -3.8765 H       1  LIG1        0.0660
     62 H           6.3215    2.0009   -2.1945 H       1  LIG1        0.0660
     63 H           5.4712    3.5073   -2.7183 H       1  LIG1        0.0660
     64 H           5.0329   -4.1657    3.9234 H       1  LIG1        0.0231
     65 H           4.4466   -2.8660    4.9761 H       1  LIG1        0.0231
     66 H           4.8831   -2.5112    3.2974 H       1  LIG1        0.0231
@<TRIPOS>BOND
     1     1    16   ar
     2     2    16   ar
     3     3    20    1
     4     3    31    1
     5     4    19    1
     6     4    33    1
     7     5    25    1
     8     5    32    1
     9     6    29    1
    10     6    32    1
    11     7    30    1
    12     7    36    1
    13     8    35    1
    14     9    10    1
    15     9    11    1
    16     9    16    1
    17    10    12    1
    18    10    14    1
    19    11    13    1
    20    11    15    1
    21    12    13   ar
    22    12    17   ar
    23    13    18   ar
    24    14    19   ar
    25    14    24   ar
    26    15    21   ar
    27    15    23   ar
    28    17    20   ar
    29    18    22   ar
    30    19    27   ar
    31    20    22   ar
    32    21    25   ar
    33    23    26   ar
    34    24    28   ar
    35    25    29   ar
    36    26    29   ar
    37    27    30   ar
    38    28    30   ar
    39    31    34    1
    40    33    35    1
    41    34    37    1
    42     8    38    1
    43     9    39    1
    44    10    40    1
    45    11    41    1
    46    17    42    1
    47    18    43    1
    48    21    44    1
    49    22    45    1
    50    23    46    1
    51    24    47    1
    52    26    48    1
    53    27    49    1
    54    28    50    1
    55    31    51    1
    56    31    52    1
    57    32    53    1
    58    32    54    1
    59    33    55    1
    60    33    56    1
    61    34    57    1
    62    34    58    1
    63    35    59    1
    64    35    60    1
    65    36    61    1
    66    36    62    1
    67    36    63    1
    68    37    64    1
    69    37    65    1
    70    37    66    1
@<TRIPOS>MOLECULE
178103
 66 70 0 0 0
SMALL
GASTEIGER

@<TRIPOS>ATOM
      1 O          -0.7398    3.5290    0.5642 O.co2   1  LIG1       -0.5495
      2 O          -0.7369    2.3590    2.5181 O.co2   1  LIG1       -0.5495
      3 O           1.7890   -4.2218    1.4780 O.3     1  LIG1       -0.4920
      4 O           3.4706    1.0784    1.2659 O.3     1  LIG1       -0.4893
      5 O          -4.2741   -0.1783   -3.3180 O.3     1  LIG1       -0.4526
      6 O          -6.3980   -0.1382   -2.1729 O.3     1  LIG1       -0.4526
      7 O           4.6637    1.6579   -3.3297 O.3     1  LIG1       -0.4950
      8 O           4.4504    1.8716    3.8504 O.3     1  LIG1       -0.3917
      9 C          -0.6357    1.1808    0.4563 C.3     1  LIG1        0.0203
     10 C           0.7656    0.5547    0.7084 C.3     1  LIG1        0.0218
     11 C          -1.7005    0.1758    0.9567 C.3     1  LIG1        0.0184
     12 C           0.4398   -0.9150    0.8741 C.ar    1  LIG1       -0.0320
     13 C          -0.9342   -1.1270    0.9899 C.ar    1  LIG1       -0.0353
     14 C           1.8026    0.8138   -0.3876 C.ar    1  LIG1        0.0025
     15 C          -2.9712    0.1052    0.1166 C.ar    1  LIG1       -0.0356
     16 C          -0.7096    2.4754    1.2616 C.2     1  LIG1        0.0466
     17 C           1.3330   -1.9713    1.0244 C.ar    1  LIG1       -0.0159
     18 C          -1.4379   -2.4009    1.2231 C.ar    1  LIG1       -0.0542
     19 C           3.1474    1.0921   -0.0660 C.ar    1  LIG1        0.1278
     20 C           0.8387   -3.2504    1.2939 C.ar    1  LIG1        0.1208
     21 C          -2.9370   -0.0164   -1.2842 C.ar    1  LIG1       -0.0124
     22 C          -0.5451   -3.4676    1.3613 C.ar    1  LIG1       -0.0196
     23 C          -4.2281    0.1225    0.7714 C.ar    1  LIG1       -0.0543
     24 C           1.4509    0.7318   -1.7470 C.ar    1  LIG1       -0.0510
     25 C          -4.1338   -0.0820   -1.9675 C.ar    1  LIG1        0.1665
     26 C          -5.4262    0.0348    0.0544 C.ar    1  LIG1       -0.0159
     27 C           4.0682    1.3673   -1.0861 C.ar    1  LIG1        0.0221
     28 C           2.3757    1.0039   -2.7586 C.ar    1  LIG1       -0.0194
     29 C          -5.3440   -0.0583   -1.3163 C.ar    1  LIG1        0.1662
     30 C           3.6798    1.3522   -2.4273 C.ar    1  LIG1        0.1236
     31 C           1.3973   -5.2979    2.3327 C.3     1  LIG1        0.0893
     32 C          -5.7088   -0.1408   -3.4398 C.3     1  LIG1        0.2332
     33 C           4.8562    1.0337    1.6088 C.3     1  LIG1        0.1126
     34 C           2.6614   -6.0137    2.8007 C.3     1  LIG1       -0.0215
     35 C           4.9509    0.7622    3.1071 C.3     1  LIG1        0.0783
     36 C           4.2011    2.2449   -4.5423 C.3     1  LIG1        0.0788
     37 C           2.3416   -7.1804    3.7188 C.3     1  LIG1       -0.0622
     38 H           3.5506    2.0460    3.5016 H       1  LIG1        0.2095
     39 H          -0.7958    1.4411   -0.5937 H       1  LIG1        0.0379
     40 H           1.1566    0.9037    1.6721 H       1  LIG1        0.0405
     41 H          -1.9876    0.3912    1.9940 H       1  LIG1        0.0404
     42 H           2.4029   -1.7965    0.9775 H       1  LIG1        0.0657
     43 H          -2.5065   -2.5630    1.3210 H       1  LIG1        0.0622
     44 H          -1.9990   -0.0507   -1.8260 H       1  LIG1        0.0658
     45 H          -0.9535   -4.4564    1.5375 H       1  LIG1        0.0654
     46 H          -4.2667    0.2133    1.8558 H       1  LIG1        0.0622
     47 H           0.4402    0.4576   -2.0365 H       1  LIG1        0.0623
     48 H          -6.3837    0.0525    0.5607 H       1  LIG1        0.0655
     49 H           5.0973    1.6262   -0.8641 H       1  LIG1        0.0691
     50 H           2.0454    0.9329   -3.7880 H       1  LIG1        0.0654
     51 H           0.7645   -5.9960    1.7729 H       1  LIG1        0.0696
     52 H           0.8530   -4.9251    3.2099 H       1  LIG1        0.0696
     53 H          -6.0333   -1.0180   -4.0117 H       1  LIG1        0.1166
     54 H          -5.9924    0.7613   -3.9946 H       1  LIG1        0.1166
     55 H           5.3183    2.0014    1.3816 H       1  LIG1        0.0720
     56 H           5.3600    0.2238    1.0689 H       1  LIG1        0.0720
     57 H           3.3143   -5.3009    3.3200 H       1  LIG1        0.0295
     58 H           3.2292   -6.3660    1.9313 H       1  LIG1        0.0295
     59 H           4.3662   -0.1196    3.3863 H       1  LIG1        0.0591
     60 H           5.9923    0.6056    3.4016 H       1  LIG1        0.0591
     61 H           5.0678    2.6676   -5.0590 H       1  LIG1        0.0660
     62 H           3.4958    3.0613   -4.3533 H       1  LIG1        0.0660
     63 H           3.7605    1.4878   -5.1977 H       1  LIG1        0.0660
     64 H           1.8019   -6.8422    4.6089 H       1  LIG1        0.0231
     65 H           3.2637   -7.6692    4.0467 H       1  LIG1        0.0231
     66 H           1.7254   -7.9249    3.2056 H       1  LIG1        0.0231
@<TRIPOS>BOND
     1     1    16   ar
     2     2    16   ar
     3     3    20    1
     4     3    31    1
     5     4    19    1
     6     4    33    1
     7     5    25    1
     8     5    32    1
     9     6    29    1
    10     6    32    1
    11     7    30    1
    12     7    36    1
    13     8    35    1
    14     9    10    1
    15     9    11    1
    16     9    16    1
    17    10    12    1
    18    10    14    1
    19    11    13    1
    20    11    15    1
    21    12    13   ar
    22    12    17   ar
    23    13    18   ar
    24    14    19   ar
    25    14    24   ar
    26    15    21   ar
    27    15    23   ar
    28    17    20   ar
    29    18    22   ar
    30    19    27   ar
    31    20    22   ar
    32    21    25   ar
    33    23    26   ar
    34    24    28   ar
    35    25    29   ar
    36    26    29   ar
    37    27    30   ar
    38    28    30   ar
    39    31    34    1
    40    33    35    1
    41    34    37    1
    42     8    38    1
    43     9    39    1
    44    10    40    1
    45    11    41    1
    46    17    42    1
    47    18    43    1
    48    21    44    1
    49    22    45    1
    50    23    46    1
    51    24    47    1
    52    26    48    1
    53    27    49    1
    54    28    50    1
    55    31    51    1
    56    31    52    1
    57    32    53    1
    58    32    54    1
    59    33    55    1
    60    33    56    1
    61    34    57    1
    62    34    58    1
    63    35    59    1
    64    35    60    1
    65    36    61    1
    66    36    62    1
    67    36    63    1
    68    37    64    1
    69    37    65    1
    70    37    66    1
@<TRIPOS>MOLECULE
178103
 66 70 0 0 0
SMALL
GASTEIGER

@<TRIPOS>ATOM
      1 O          -0.3222    2.6162    2.1763 O.co2   1  LIG1       -0.5495
      2 O          -1.6492    3.2293    0.4321 O.co2   1  LIG1       -0.5495
      3 O           1.6618   -4.3963    1.3433 O.3     1  LIG1       -0.4920
      4 O           0.9508   -0.8621   -1.8674 O.3     1  LIG1       -0.4893
      5 O          -6.6134   -0.3246    0.4001 O.3     1  LIG1       -0.4526
      6 O          -6.4769   -0.5934   -1.9954 O.3     1  LIG1       -0.4526
      7 O           4.8573    1.8271   -3.0580 O.3     1  LIG1       -0.4950
      8 O           0.6787   -4.1481   -3.4456 O.3     1  LIG1       -0.3917
      9 C          -0.6327    1.1047    0.3654 C.3     1  LIG1        0.0203
     10 C           0.7549    0.5176    0.6954 C.3     1  LIG1        0.0218
     11 C          -1.6979    0.1309    0.9326 C.3     1  LIG1        0.0184
     12 C           0.4538   -0.9392    0.9599 C.ar    1  LIG1       -0.0320
     13 C          -0.9186   -1.1604    1.0787 C.ar    1  LIG1       -0.0353
     14 C           1.7881    0.8052   -0.3937 C.ar    1  LIG1        0.0025
     15 C          -2.9532   -0.0380    0.0827 C.ar    1  LIG1       -0.0356
     16 C          -0.8851    2.4391    1.0600 C.2     1  LIG1        0.0466
     17 C           1.3647   -1.9782    1.1159 C.ar    1  LIG1       -0.0159
     18 C          -1.4045   -2.4313    1.3584 C.ar    1  LIG1       -0.0542
     19 C           1.8969    0.0972   -1.6080 C.ar    1  LIG1        0.1278
     20 C           0.8789   -3.2720    1.3078 C.ar    1  LIG1        0.1208
     21 C          -4.2095   -0.0643    0.7170 C.ar    1  LIG1       -0.0124
     22 C          -0.4979   -3.4896    1.4633 C.ar    1  LIG1       -0.0196
     23 C          -2.8904   -0.2196   -1.3205 C.ar    1  LIG1       -0.0543
     24 C           2.6767    1.8713   -0.1622 C.ar    1  LIG1       -0.0510
     25 C          -5.3335   -0.2575   -0.0580 C.ar    1  LIG1        0.1665
     26 C          -4.0491   -0.3998   -2.0838 C.ar    1  LIG1       -0.0159
     27 C           2.9112    0.4230   -2.5238 C.ar    1  LIG1        0.0221
     28 C           3.6812    2.1850   -1.0778 C.ar    1  LIG1       -0.0194
     29 C          -5.2556   -0.4163   -1.4213 C.ar    1  LIG1        0.1662
     30 C           3.8216    1.4445   -2.2475 C.ar    1  LIG1        0.1236
     31 C           2.8569   -4.3217    0.5590 C.3     1  LIG1        0.0893
     32 C          -7.3303   -0.4958   -0.8373 C.3     1  LIG1        0.2332
     33 C           1.3296   -1.9246   -2.7391 C.3     1  LIG1        0.1126
     34 C           3.1267   -5.7056   -0.0227 C.3     1  LIG1       -0.0215
     35 C           0.3402   -3.0720   -2.5733 C.3     1  LIG1        0.0783
     36 C           5.2870    0.8670   -4.0151 C.3     1  LIG1        0.0788
     37 C           4.3723   -5.7141   -0.8912 C.3     1  LIG1       -0.0622
     38 H           0.0317   -4.8518   -3.2627 H       1  LIG1        0.2095
     39 H          -0.7357    1.2604   -0.7150 H       1  LIG1        0.0379
     40 H           1.1539    0.8947    1.6457 H       1  LIG1        0.0405
     41 H          -1.9951    0.4387    1.9454 H       1  LIG1        0.0404
     42 H           2.4251   -1.7638    1.0525 H       1  LIG1        0.0657
     43 H          -2.4690   -2.6052    1.4766 H       1  LIG1        0.0622
     44 H          -4.2982    0.0684    1.7902 H       1  LIG1        0.0658
     45 H          -0.8655   -4.4947    1.6469 H       1  LIG1        0.0654
     46 H          -1.9260   -0.2130   -1.8247 H       1  LIG1        0.0622
     47 H           2.5759    2.4710    0.7432 H       1  LIG1        0.0623
     48 H          -3.9958   -0.5169   -3.1590 H       1  LIG1        0.0655
     49 H           2.9652   -0.0998   -3.4694 H       1  LIG1        0.0691
     50 H           4.3534    3.0129   -0.8714 H       1  LIG1        0.0654
     51 H           3.6827   -4.0090    1.2078 H       1  LIG1        0.0696
     52 H           2.7655   -3.6158   -0.2756 H       1  LIG1        0.0696
     53 H          -8.0093    0.3546   -0.9708 H       1  LIG1        0.1166
     54 H          -7.9286   -1.4117   -0.7696 H       1  LIG1        0.1166
     55 H           2.3395   -2.2903   -2.5124 H       1  LIG1        0.0720
     56 H           1.3083   -1.5839   -3.7810 H       1  LIG1        0.0720
     57 H           2.2612   -6.0226   -0.6174 H       1  LIG1        0.0295
     58 H           3.2245   -6.4389    0.7861 H       1  LIG1        0.0295
     59 H           0.3503   -3.4430   -1.5459 H       1  LIG1        0.0591
     60 H          -0.6786   -2.7380   -2.7961 H       1  LIG1        0.0591
     61 H           6.2256    1.2253   -4.4489 H       1  LIG1        0.0660
     62 H           4.5606    0.7713   -4.8284 H       1  LIG1        0.0660
     63 H           5.4870   -0.1036   -3.5478 H       1  LIG1        0.0660
     64 H           4.2857   -4.9910   -1.7089 H       1  LIG1        0.0231
     65 H           4.5227   -6.7051   -1.3304 H       1  LIG1        0.0231
     66 H           5.2607   -5.4624   -0.3034 H       1  LIG1        0.0231
@<TRIPOS>BOND
     1     1    16   ar
     2     2    16   ar
     3     3    20    1
     4     3    31    1
     5     4    19    1
     6     4    33    1
     7     5    25    1
     8     5    32    1
     9     6    29    1
    10     6    32    1
    11     7    30    1
    12     7    36    1
    13     8    35    1
    14     9    10    1
    15     9    11    1
    16     9    16    1
    17    10    12    1
    18    10    14    1
    19    11    13    1
    20    11    15    1
    21    12    13   ar
    22    12    17   ar
    23    13    18   ar
    24    14    19   ar
    25    14    24   ar
    26    15    21   ar
    27    15    23   ar
    28    17    20   ar
    29    18    22   ar
    30    19    27   ar
    31    20    22   ar
    32    21    25   ar
    33    23    26   ar
    34    24    28   ar
    35    25    29   ar
    36    26    29   ar
    37    27    30   ar
    38    28    30   ar
    39    31    34    1
    40    33    35    1
    41    34    37    1
    42     8    38    1
    43     9    39    1
    44    10    40    1
    45    11    41    1
    46    17    42    1
    47    18    43    1
    48    21    44    1
    49    22    45    1
    50    23    46    1
    51    24    47    1
    52    26    48    1
    53    27    49    1
    54    28    50    1
    55    31    51    1
    56    31    52    1
    57    32    53    1
    58    32    54    1
    59    33    55    1
    60    33    56    1
    61    34    57    1
    62    34    58    1
    63    35    59    1
    64    35    60    1
    65    36    61    1
    66    36    62    1
    67    36    63    1
    68    37    64    1
    69    37    65    1
    70    37    66    1
@<TRIPOS>MOLECULE
178103
 66 70 0 0 0
SMALL
GASTEIGER

@<TRIPOS>ATOM
      1 O          -0.4991    2.5284    2.3454 O.co2   1  LIG1       -0.5495
      2 O          -0.7577    3.5007    0.3038 O.co2   1  LIG1       -0.5495
      3 O           1.6223   -4.4295    1.1432 O.3     1  LIG1       -0.4920
      4 O           3.4035    1.7472    1.2471 O.3     1  LIG1       -0.4893
      5 O          -6.3585   -1.2688    0.3329 O.3     1  LIG1       -0.4526
      6 O          -6.5450   -0.3509   -1.8919 O.3     1  LIG1       -0.4526
      7 O           4.7452    1.1913   -3.3813 O.3     1  LIG1       -0.4950
      8 O           4.4163    2.9395    3.5564 O.3     1  LIG1       -0.3917
      9 C          -0.5353    1.1641    0.4025 C.3     1  LIG1        0.0203
     10 C           0.8358    0.5351    0.7455 C.3     1  LIG1        0.0218
     11 C          -1.6487    0.2136    0.9193 C.3     1  LIG1        0.0184
     12 C           0.4762   -0.9267    0.8867 C.ar    1  LIG1       -0.0320
     13 C          -0.9057   -1.1170    0.9594 C.ar    1  LIG1       -0.0353
     14 C           1.8924    0.7683   -0.3349 C.ar    1  LIG1        0.0025
     15 C          -2.9582    0.1674    0.1186 C.ar    1  LIG1       -0.0356
     16 C          -0.6126    2.5200    1.0892 C.2     1  LIG1        0.0466
     17 C           1.3689   -1.9946    0.9747 C.ar    1  LIG1       -0.0159
     18 C          -1.4050   -2.4026    1.1361 C.ar    1  LIG1       -0.0542
     19 C           3.1205    1.3736   -0.0418 C.ar    1  LIG1        0.1278
     20 C           0.8664   -3.2879    1.0973 C.ar    1  LIG1        0.1208
     21 C          -4.0760   -0.4792    0.6902 C.ar    1  LIG1       -0.0124
     22 C          -0.5165   -3.4830    1.1976 C.ar    1  LIG1       -0.0196
     23 C          -3.1076    0.7205   -1.1762 C.ar    1  LIG1       -0.0543
     24 C           1.6682    0.3507   -1.6564 C.ar    1  LIG1       -0.0510
     25 C          -5.2294   -0.6164   -0.0565 C.ar    1  LIG1        0.1665
     26 C          -4.3004    0.5934   -1.9026 C.ar    1  LIG1       -0.0159
     27 C           4.1105    1.5246   -1.0246 C.ar    1  LIG1        0.0221
     28 C           2.6431    0.5237   -2.6445 C.ar    1  LIG1       -0.0194
     29 C          -5.3362   -0.0977   -1.3222 C.ar    1  LIG1        0.1662
     30 C           3.8708    1.1047   -2.3318 C.ar    1  LIG1        0.1236
     31 C           2.9500   -4.3116    0.6288 C.3     1  LIG1        0.0893
     32 C          -7.1709   -1.1240   -0.8491 C.3     1  LIG1        0.2332
     33 C           3.4129    3.1825    1.3670 C.3     1  LIG1        0.1126
     34 C           3.5202   -5.7111    0.4088 C.3     1  LIG1       -0.0215
     35 C           3.3185    3.5308    2.8489 C.3     1  LIG1        0.0783
     36 C           6.0148    1.7674   -3.1049 C.3     1  LIG1        0.0788
     37 C           3.6903   -6.4815    1.7097 C.3     1  LIG1       -0.0622
     38 H           4.3245    1.9831    3.3807 H       1  LIG1        0.2095
     39 H          -0.5987    1.3195   -0.6760 H       1  LIG1        0.0379
     40 H           1.2050    0.8652    1.7231 H       1  LIG1        0.0405
     41 H          -1.9139    0.4716    1.9538 H       1  LIG1        0.0404
     42 H           2.4324   -1.7876    0.9417 H       1  LIG1        0.0657
     43 H          -2.4677   -2.5924    1.2266 H       1  LIG1        0.0622
     44 H          -4.0308   -0.8877    1.6946 H       1  LIG1        0.0658
     45 H          -0.9070   -4.4894    1.3208 H       1  LIG1        0.0654
     46 H          -2.3028    1.2757   -1.6496 H       1  LIG1        0.0622
     47 H           0.7290   -0.1251   -1.9297 H       1  LIG1        0.0623
     48 H          -4.3948    1.0246   -2.8922 H       1  LIG1        0.0655
     49 H           5.0576    1.9618   -0.7321 H       1  LIG1        0.0691
     50 H           2.4402    0.1937   -3.6586 H       1  LIG1        0.0654
     51 H           3.5788   -3.7614    1.3389 H       1  LIG1        0.0696
     52 H           2.9426   -3.7917   -0.3376 H       1  LIG1        0.0696
     53 H          -8.1135   -0.6398   -0.5707 H       1  LIG1        0.1166
     54 H          -7.3958   -2.1226   -1.2439 H       1  LIG1        0.1166
     55 H           2.5764    3.6384    0.8241 H       1  LIG1        0.0720
     56 H           4.3639    3.5566    0.9697 H       1  LIG1        0.0720
     57 H           4.4913   -5.6321   -0.0924 H       1  LIG1        0.0295
     58 H           2.8507   -6.2796   -0.2474 H       1  LIG1        0.0295
     59 H           3.3660    4.6138    2.9950 H       1  LIG1        0.0591
     60 H           2.3932    3.1488    3.2890 H       1  LIG1        0.0591
     61 H           6.5900    1.7680   -4.0360 H       1  LIG1        0.0660
     62 H           6.5681    1.1694   -2.3736 H       1  LIG1        0.0660
     63 H           5.9152    2.8063   -2.7747 H       1  LIG1        0.0660
     64 H           4.3687   -5.9557    2.3890 H       1  LIG1        0.0231
     65 H           4.1123   -7.4712    1.5079 H       1  LIG1        0.0231
     66 H           2.7320   -6.6212    2.2192 H       1  LIG1        0.0231
@<TRIPOS>BOND
     1     1    16   ar
     2     2    16   ar
     3     3    20    1
     4     3    31    1
     5     4    19    1
     6     4    33    1
     7     5    25    1
     8     5    32    1
     9     6    29    1
    10     6    32    1
    11     7    30    1
    12     7    36    1
    13     8    35    1
    14     9    10    1
    15     9    11    1
    16     9    16    1
    17    10    12    1
    18    10    14    1
    19    11    13    1
    20    11    15    1
    21    12    13   ar
    22    12    17   ar
    23    13    18   ar
    24    14    19   ar
    25    14    24   ar
    26    15    21   ar
    27    15    23   ar
    28    17    20   ar
    29    18    22   ar
    30    19    27   ar
    31    20    22   ar
    32    21    25   ar
    33    23    26   ar
    34    24    28   ar
    35    25    29   ar
    36    26    29   ar
    37    27    30   ar
    38    28    30   ar
    39    31    34    1
    40    33    35    1
    41    34    37    1
    42     8    38    1
    43     9    39    1
    44    10    40    1
    45    11    41    1
    46    17    42    1
    47    18    43    1
    48    21    44    1
    49    22    45    1
    50    23    46    1
    51    24    47    1
    52    26    48    1
    53    27    49    1
    54    28    50    1
    55    31    51    1
    56    31    52    1
    57    32    53    1
    58    32    54    1
    59    33    55    1
    60    33    56    1
    61    34    57    1
    62    34    58    1
    63    35    59    1
    64    35    60    1
    65    36    61    1
    66    36    62    1
    67    36    63    1
    68    37    64    1
    69    37    65    1
    70    37    66    1
@<TRIPOS>MOLECULE
178103
 66 70 0 0 0
SMALL
GASTEIGER

@<TRIPOS>ATOM
      1 O          -0.4223    2.6040    2.1003 O.co2   1  LIG1       -0.5495
      2 O          -1.6179    3.1953    0.2596 O.co2   1  LIG1       -0.5495
      3 O           1.7469   -4.3879    1.4697 O.3     1  LIG1       -0.4920
      4 O           0.9823   -0.9173   -1.8612 O.3     1  LIG1       -0.4893
      5 O          -4.4595   -1.7881   -2.7561 O.3     1  LIG1       -0.4526
      6 O          -6.3578   -0.4094   -2.1838 O.3     1  LIG1       -0.4526
      7 O           4.7138    1.7009   -3.2514 O.3     1  LIG1       -0.4950
      8 O           0.7946   -4.2000   -3.4564 O.3     1  LIG1       -0.3917
      9 C          -0.6703    1.0354    0.3284 C.3     1  LIG1        0.0203
     10 C           0.7343    0.4989    0.6687 C.3     1  LIG1        0.0218
     11 C          -1.6965    0.0763    0.9760 C.3     1  LIG1        0.0184
     12 C           0.4723   -0.9578    0.9741 C.ar    1  LIG1       -0.0320
     13 C          -0.8915   -1.1957    1.1535 C.ar    1  LIG1       -0.0353
     14 C           1.7620    0.7985   -0.4189 C.ar    1  LIG1        0.0025
     15 C          -2.9604   -0.0649    0.1345 C.ar    1  LIG1       -0.0356
     16 C          -0.9181    2.4048    0.9536 C.2     1  LIG1        0.0466
     17 C           1.4083   -1.9761    1.1300 C.ar    1  LIG1       -0.0159
     18 C          -1.3419   -2.4611    1.5036 C.ar    1  LIG1       -0.0542
     19 C           1.8886    0.0824   -1.6242 C.ar    1  LIG1        0.1278
     20 C           0.9585   -3.2688    1.4012 C.ar    1  LIG1        0.1208
     21 C          -3.0366   -0.9343   -0.9686 C.ar    1  LIG1       -0.0124
     22 C          -0.4112   -3.4993    1.6087 C.ar    1  LIG1       -0.0196
     23 C          -4.0759    0.7520    0.4409 C.ar    1  LIG1       -0.0543
     24 C           2.6262    1.8870   -0.1948 C.ar    1  LIG1       -0.0510
     25 C          -4.2167   -0.9895   -1.6805 C.ar    1  LIG1        0.1665
     26 C          -5.2579    0.6821   -0.3038 C.ar    1  LIG1       -0.0159
     27 C           2.8887    0.4361   -2.5410 C.ar    1  LIG1        0.0221
     28 C           3.6242    2.2265   -1.1113 C.ar    1  LIG1       -0.0194
     29 C          -5.2985   -0.2056   -1.3546 C.ar    1  LIG1        0.1662
     30 C           3.7708    1.4887   -2.2809 C.ar    1  LIG1        0.1236
     31 C           3.1049   -4.2352    1.0540 C.3     1  LIG1        0.0893
     32 C          -5.8051   -1.3898   -3.0838 C.3     1  LIG1        0.2332
     33 C           1.3832   -1.9556   -2.7518 C.3     1  LIG1        0.1126
     34 C           3.7113   -5.6127    0.7949 C.3     1  LIG1       -0.0215
     35 C           0.4393   -3.1388   -2.5731 C.3     1  LIG1        0.0783
     36 C           5.7286    2.6494   -2.9490 C.3     1  LIG1        0.0788
     37 C           3.6553   -6.5264    2.0089 C.3     1  LIG1       -0.0622
     38 H           0.1642   -4.9182   -3.2753 H       1  LIG1        0.2095
     39 H          -0.8132    1.0977   -0.7598 H       1  LIG1        0.0379
     40 H           1.1169    0.9092    1.6125 H       1  LIG1        0.0405
     41 H          -1.9814    0.4012    1.9868 H       1  LIG1        0.0404
     42 H           2.4572   -1.7358    1.0074 H       1  LIG1        0.0657
     43 H          -2.3980   -2.6463    1.6716 H       1  LIG1        0.0622
     44 H          -2.1891   -1.5409   -1.2659 H       1  LIG1        0.0658
     45 H          -0.7545   -4.5023    1.8463 H       1  LIG1        0.0654
     46 H          -4.0009    1.4781    1.2513 H       1  LIG1        0.0622
     47 H           2.5080    2.4887    0.7073 H       1  LIG1        0.0623
     48 H          -6.0997    1.3224   -0.0711 H       1  LIG1        0.0655
     49 H           2.9938   -0.0885   -3.4844 H       1  LIG1        0.0691
     50 H           4.2516    3.0802   -0.8816 H       1  LIG1        0.0654
     51 H           3.6691   -3.7168    1.8386 H       1  LIG1        0.0696
     52 H           3.1705   -3.6683    0.1170 H       1  LIG1        0.0696
     53 H          -6.4459   -2.2791   -3.0653 H       1  LIG1        0.1166
     54 H          -5.8116   -0.9773   -4.0996 H       1  LIG1        0.1166
     55 H           2.4095   -2.2866   -2.5460 H       1  LIG1        0.0720
     56 H           1.3289   -1.6064   -3.7898 H       1  LIG1        0.0720
     57 H           4.7525   -5.4934    0.4766 H       1  LIG1        0.0295
     58 H           3.1689   -6.0968   -0.0249 H       1  LIG1        0.0295
     59 H           0.4822   -3.5113   -1.5459 H       1  LIG1        0.0591
     60 H          -0.5940   -2.8395   -2.7754 H       1  LIG1        0.0591
     61 H           6.4526    2.6361   -3.7697 H       1  LIG1        0.0660
     62 H           6.2643    2.3816   -2.0316 H       1  LIG1        0.0660
     63 H           5.3150    3.6611   -2.8858 H       1  LIG1        0.0660
     64 H           4.1677   -6.0762    2.8652 H       1  LIG1        0.0231
     65 H           4.1433   -7.4808    1.7832 H       1  LIG1        0.0231
     66 H           2.6210   -6.7412    2.2984 H       1  LIG1        0.0231
@<TRIPOS>BOND
     1     1    16   ar
     2     2    16   ar
     3     3    20    1
     4     3    31    1
     5     4    19    1
     6     4    33    1
     7     5    25    1
     8     5    32    1
     9     6    29    1
    10     6    32    1
    11     7    30    1
    12     7    36    1
    13     8    35    1
    14     9    10    1
    15     9    11    1
    16     9    16    1
    17    10    12    1
    18    10    14    1
    19    11    13    1
    20    11    15    1
    21    12    13   ar
    22    12    17   ar
    23    13    18   ar
    24    14    19   ar
    25    14    24   ar
    26    15    21   ar
    27    15    23   ar
    28    17    20   ar
    29    18    22   ar
    30    19    27   ar
    31    20    22   ar
    32    21    25   ar
    33    23    26   ar
    34    24    28   ar
    35    25    29   ar
    36    26    29   ar
    37    27    30   ar
    38    28    30   ar
    39    31    34    1
    40    33    35    1
    41    34    37    1
    42     8    38    1
    43     9    39    1
    44    10    40    1
    45    11    41    1
    46    17    42    1
    47    18    43    1
    48    21    44    1
    49    22    45    1
    50    23    46    1
    51    24    47    1
    52    26    48    1
    53    27    49    1
    54    28    50    1
    55    31    51    1
    56    31    52    1
    57    32    53    1
    58    32    54    1
    59    33    55    1
    60    33    56    1
    61    34    57    1
    62    34    58    1
    63    35    59    1
    64    35    60    1
    65    36    61    1
    66    36    62    1
    67    36    63    1
    68    37    64    1
    69    37    65    1
    70    37    66    1
