@<TRIPOS>MOLECULE
HTS1204-03362316-01
 87 90 0 0 0
SMALL
USER_CHARGES

@<TRIPOS>ATOM
      1 C1          1.6220   -1.8419    1.0796 C.ar    1  UNK1       -0.0199
      2 N1          2.8912   -1.7237    2.9095 N.ar    1  UNK1       -0.3494
      3 C2         -5.3461   -1.1154    1.5796 C.2     1  UNK1        0.3028
      4 C3          1.8486   -1.1352    2.2449 C.ar    1  UNK1        0.0086
      5 C4          0.8331    1.1298    0.2022 C.2     1  UNK1        0.2342
      6 C5          2.4810   -2.9924    1.1308 C.ar    1  UNK1        0.0031
      7 C6         -2.1792   -0.9313    1.0132 C.2     1  UNK1        0.2340
      8 C7          3.2560   -2.8965    2.2886 C.ar    1  UNK1        0.0491
      9 N2         -4.2615   -1.5680    2.2786 N.am    1  UNK1       -0.2879
     10 N3         -6.4385   -1.9778    1.6063 N.am    1  UNK1       -0.2856
     11 N4         -1.0633   -0.1242    1.0118 N.am    1  UNK1       -0.3022
     12 N5          2.1392    1.1033   -0.1923 N.am    1  UNK1       -0.3054
     13 C8         -0.0224   -0.1484   -0.0259 C.3     1  UNK1        0.1034
     14 C9         -3.0116   -0.8181    2.3224 C.3     1  UNK1        0.1011
     15 C10         3.1066    2.1782    0.1374 C.3     1  UNK1        0.0680
     16 C11         0.7338   -1.4856   -0.0805 C.3     1  UNK1        0.0013
     17 C12         4.4755    1.6244    0.6382 C.2     1  UNK1        0.0623
     18 C13         3.3306    3.1695   -1.0087 C.3     1  UNK1        0.0133
     19 O1         -5.3630   -0.0299    1.0082 O.2     1  UNK1       -0.2526
     20 O2         -2.4393   -1.7051    0.0946 O.2     1  UNK1       -0.2738
     21 O3          0.3019    2.1435    0.6725 O.2     1  UNK1       -0.2738
     22 N6          4.6854    2.2314   -2.8341 N.ar    1  UNK1       -0.2598
     23 O4          4.6184    0.3720    0.4888 O.co2   1  UNK1       -0.5479
     24 C14        -2.1620   -1.2329    3.5479 C.3     1  UNK1       -0.0236
     25 C15         3.4479    2.5335   -2.3758 C.ar    1  UNK1        0.0434
     26 O5          5.2198    2.4546    1.2347 O.co2   1  UNK1       -0.5479
     27 C16         3.5699   -1.1365    4.0419 C.3     1  UNK1        0.0119
     28 C17        -7.6803   -1.4944    1.0011 C.3     1  UNK1        0.0161
     29 C18        -6.3907   -3.3604    2.0832 C.3     1  UNK1        0.0161
     30 C19         4.2392   -3.8452    2.6126 C.ar    1  UNK1       -0.0376
     31 C20         2.6999   -4.0834    0.2623 C.ar    1  UNK1       -0.0523
     32 C21        -1.9980   -2.7451    3.8382 C.3     1  UNK1       -0.0446
     33 C22         4.7718    1.5881   -4.0173 C.ar    1  UNK1        0.0279
     34 C23         2.2970    2.2568   -3.1157 C.ar    1  UNK1       -0.0403
     35 C24        -0.9743   -2.9381    4.9622 C.3     1  UNK1       -0.0626
     36 C25        -1.5912   -3.5900    2.6338 C.3     1  UNK1       -0.0626
     37 C26        -8.9101   -2.3874    1.1855 C.3     1  UNK1       -0.0371
     38 C27        -7.0568   -3.5167    3.4497 C.3     1  UNK1       -0.0371
     39 C28         3.6744   -5.0372    0.5772 C.ar    1  UNK1       -0.0611
     40 C29         4.4330   -4.9170    1.7373 C.ar    1  UNK1       -0.0598
     41 C30         3.6788    1.2647   -4.8032 C.ar    1  UNK1       -0.0436
     42 C31         2.4167    1.6171   -4.3448 C.ar    1  UNK1       -0.0586
     43 C32        -9.3484   -2.6302    2.6335 C.3     1  UNK1       -0.0516
     44 C33        -8.2581   -2.6043    3.7026 C.3     1  UNK1       -0.0516
     45 H           1.4403   -0.1996    2.6018 H       1  UNK1        0.0812
     46 H          -4.5079   -2.0720    3.1123 H       1  UNK1        0.1510
     47 H          -1.0376    0.6878    1.6214 H       1  UNK1        0.1495
     48 H           2.6395    0.2119   -0.2438 H       1  UNK1        0.1494
     49 H          -0.5365   -0.0091   -0.9854 H       1  UNK1        0.0598
     50 H          -3.2698    0.2443    2.4290 H       1  UNK1        0.0595
     51 H           2.6986    2.7339    0.9923 H       1  UNK1        0.0564
     52 H           1.3587   -1.4842   -0.9843 H       1  UNK1        0.0337
     53 H           0.0199   -2.3076   -0.2161 H       1  UNK1        0.0337
     54 H           4.2243    3.7818   -0.8299 H       1  UNK1        0.0350
     55 H           2.4907    3.8767   -1.0368 H       1  UNK1        0.0350
     56 H          -2.6335   -0.7882    4.4362 H       1  UNK1        0.0290
     57 H          -1.1694   -0.7713    3.4861 H       1  UNK1        0.0290
     58 H           3.0784   -0.2011    4.3212 H       1  UNK1        0.0456
     59 H           4.6072   -0.9393    3.7606 H       1  UNK1        0.0456
     60 H           3.5205   -1.8402    4.8770 H       1  UNK1        0.0456
     61 H          -7.4859   -1.3779   -0.0725 H       1  UNK1        0.0465
     62 H          -7.8864   -0.4919    1.3959 H       1  UNK1        0.0465
     63 H          -5.3588   -3.7216    2.1433 H       1  UNK1        0.0465
     64 H          -6.8608   -4.0083    1.3368 H       1  UNK1        0.0465
     65 H           4.8572   -3.7337    3.4972 H       1  UNK1        0.0638
     66 H           2.1308   -4.1696   -0.6572 H       1  UNK1        0.0624
     67 H          -2.9563   -3.1345    4.2061 H       1  UNK1        0.0296
     68 H           5.7799    1.3256   -4.3200 H       1  UNK1        0.0829
     69 H           1.3193    2.5160   -2.7215 H       1  UNK1        0.0635
     70 H           0.0192   -2.5900    4.6572 H       1  UNK1        0.0232
     71 H          -0.8912   -3.9943    5.2368 H       1  UNK1        0.0232
     72 H          -1.2696   -2.3820    5.8581 H       1  UNK1        0.0232
     73 H          -0.6839   -3.2056    2.1648 H       1  UNK1        0.0232
     74 H          -2.3863   -3.6270    1.8836 H       1  UNK1        0.0232
     75 H          -1.3965   -4.6263    2.9331 H       1  UNK1        0.0232
     76 H          -8.7473   -3.3539    0.6944 H       1  UNK1        0.0280
     77 H          -9.7529   -1.9387    0.6435 H       1  UNK1        0.0280
     78 H          -6.3136   -3.3031    4.2287 H       1  UNK1        0.0280
     79 H          -7.3470   -4.5656    3.5869 H       1  UNK1        0.0280
     80 H           3.8541   -5.8640   -0.1045 H       1  UNK1        0.0618
     81 H           5.2044   -5.6494    1.9554 H       1  UNK1        0.0618
     82 H           3.8094    0.7439   -5.7437 H       1  UNK1        0.0633
     83 H           1.5309    1.3802   -4.9250 H       1  UNK1        0.0619
     84 H          -9.8782   -3.5898    2.6800 H       1  UNK1        0.0266
     85 H         -10.0916   -1.8672    2.9007 H       1  UNK1        0.0266
     86 H          -7.9073   -1.5719    3.8315 H       1  UNK1        0.0266
     87 H          -8.7068   -2.8798    4.6654 H       1  UNK1        0.0266
@<TRIPOS>BOND
     1     2     4   ar
     2     3     9   am
     3     1     4   ar
     4     5    13    1
     5     1     6   ar
     6     7    11   am
     7     6     8   ar
     8     9    14    1
     9     3    10   am
    10    11    13    1
    11     5    12   am
    12    13    16    1
    13     7    14    1
    14    12    15    1
    15     1    16    1
    16    15    17    1
    17    15    18    1
    18     3    19    2
    19     7    20    2
    20     5    21    2
    21    22    25   ar
    22    17    23   ar
    23    14    24    1
    24    18    25    1
    25    17    26   ar
    26     2    27    1
    27    10    28    1
    28    10    29    1
    29     8    30   ar
    30     6    31   ar
    31    24    32    1
    32    22    33   ar
    33    25    34   ar
    34    32    35    1
    35    32    36    1
    36    28    37    1
    37    29    38    1
    38    31    39   ar
    39    39    40   ar
    40    41    42   ar
    41    34    42   ar
    42    37    43    1
    43    38    44    1
    44     2     8   ar
    45    30    40   ar
    46    33    41   ar
    47    43    44    1
    48     4    45    1
    49     9    46    1
    50    11    47    1
    51    12    48    1
    52    13    49    1
    53    14    50    1
    54    15    51    1
    55    16    52    1
    56    16    53    1
    57    18    54    1
    58    18    55    1
    59    24    56    1
    60    24    57    1
    61    27    58    1
    62    27    59    1
    63    27    60    1
    64    28    61    1
    65    28    62    1
    66    29    63    1
    67    29    64    1
    68    30    65    1
    69    31    66    1
    70    32    67    1
    71    33    68    1
    72    34    69    1
    73    35    70    1
    74    35    71    1
    75    35    72    1
    76    36    73    1
    77    36    74    1
    78    36    75    1
    79    37    76    1
    80    37    77    1
    81    38    78    1
    82    38    79    1
    83    39    80    1
    84    40    81    1
    85    41    82    1
    86    42    83    1
    87    43    84    1
    88    43    85    1
    89    44    86    1
    90    44    87    1
@<TRIPOS>MOLECULE
HTS1204-03362316-01
 87 90 0 0 0
SMALL
USER_CHARGES

@<TRIPOS>ATOM
      1 C1          1.7155   -1.9131    1.2301 C.ar    1  UNK1       -0.0199
      2 N1          2.5410   -2.3004    3.2638 N.ar    1  UNK1       -0.3494
      3 C2         -4.5756   -3.4336    0.1927 C.2     1  UNK1        0.3028
      4 C3          1.3833   -2.1303    2.5534 C.ar    1  UNK1        0.0086
      5 C4          0.7898    0.9760    0.1976 C.2     1  UNK1        0.2342
      6 C5          3.1422   -2.0178    1.1382 C.ar    1  UNK1        0.0031
      7 C6         -2.3294   -0.7822    1.1796 C.2     1  UNK1        0.2340
      8 C7          3.6321   -2.2541    2.4249 C.ar    1  UNK1        0.0491
      9 N2         -4.1274   -2.1687    0.2394 N.am    1  UNK1       -0.2879
     10 N3         -3.8347   -4.4880   -0.2795 N.am    1  UNK1       -0.2856
     11 N4         -1.0464   -0.3285    1.1866 N.am    1  UNK1       -0.3022
     12 N5          1.8443    1.0549   -0.6819 N.am    1  UNK1       -0.3054
     13 C8         -0.0132   -0.3486    0.1368 C.3     1  UNK1        0.1034
     14 C9         -2.9137   -1.4168   -0.1018 C.3     1  UNK1        0.1011
     15 C10         2.6627    2.2862   -0.8506 C.3     1  UNK1        0.0680
     16 C11         0.7747   -1.6637    0.0987 C.3     1  UNK1        0.0013
     17 C12         4.1754    2.0830   -0.5231 C.2     1  UNK1        0.0623
     18 C13         2.3947    2.9528   -2.2118 C.3     1  UNK1        0.0133
     19 O1         -5.7317   -3.5893    0.6078 O.2     1  UNK1       -0.2526
     20 O2         -3.0006   -0.6742    2.2128 O.2     1  UNK1       -0.2738
     21 O3          0.3754    1.9347    0.8522 O.2     1  UNK1       -0.2738
     22 N6          1.4845    2.4317   -4.4138 N.ar    1  UNK1       -0.2598
     23 O4          5.0057    2.5230   -1.3658 O.co2   1  UNK1       -0.5479
     24 C14        -3.2037   -0.4608   -1.2752 C.3     1  UNK1       -0.0236
     25 C15         2.4003    2.0949   -3.4616 C.ar    1  UNK1        0.0434
     26 O5          4.4003    1.4337    0.5376 O.co2   1  UNK1       -0.5479
     27 C16         2.6103   -2.4831    4.6951 C.3     1  UNK1        0.0119
     28 C17        -2.4469   -4.4303   -0.7397 C.3     1  UNK1        0.0161
     29 C18        -4.4646   -5.8124   -0.2467 C.3     1  UNK1        0.0161
     30 C19         5.0064   -2.3704    2.6913 C.ar    1  UNK1       -0.0376
     31 C20         4.0650   -1.9128    0.0753 C.ar    1  UNK1       -0.0523
     32 C21        -4.2061    0.6946   -1.0726 C.3     1  UNK1       -0.0446
     33 C22         1.4970    1.7453   -5.5765 C.ar    1  UNK1        0.0279
     34 C23         3.3209    1.0716   -3.6754 C.ar    1  UNK1       -0.0403
     35 C24        -4.3917    1.4154   -2.4168 C.3     1  UNK1       -0.0626
     36 C25        -3.7618    1.7198   -0.0297 C.3     1  UNK1       -0.0626
     37 C26        -1.8200   -5.7330   -1.2449 C.3     1  UNK1       -0.0371
     38 C27        -4.8363   -6.3460   -1.6322 C.3     1  UNK1       -0.0371
     39 C28         5.4356   -2.0083    0.3326 C.ar    1  UNK1       -0.0611
     40 C29         5.8979   -2.2335    1.6238 C.ar    1  UNK1       -0.0598
     41 C30         2.3703    0.7104   -5.8528 C.ar    1  UNK1       -0.0436
     42 C31         3.2961    0.3668   -4.8785 C.ar    1  UNK1       -0.0586
     43 C32        -2.4232   -6.2629   -2.5467 C.3     1  UNK1       -0.0516
     44 C33        -3.9012   -5.9598   -2.7759 C.3     1  UNK1       -0.0516
     45 H           0.4189   -2.1501    3.0448 H       1  UNK1        0.0812
     46 H          -4.7920   -1.6090    0.7631 H       1  UNK1        0.1510
     47 H          -0.7768    0.1519    2.0409 H       1  UNK1        0.1495
     48 H           2.3953    0.2165   -0.8041 H       1  UNK1        0.1494
     49 H          -0.5294   -0.2954   -0.8209 H       1  UNK1        0.0598
     50 H          -2.1475   -2.0987   -0.4427 H       1  UNK1        0.0595
     51 H           2.3358    3.0055   -0.0870 H       1  UNK1        0.0564
     52 H           1.3241   -1.7177   -0.8490 H       1  UNK1        0.0337
     53 H           0.0716   -2.5058    0.0673 H       1  UNK1        0.0337
     54 H           3.0942    3.7818   -2.3765 H       1  UNK1        0.0350
     55 H           1.3987    3.4140   -2.1520 H       1  UNK1        0.0350
     56 H          -3.5787   -1.0816   -2.1024 H       1  UNK1        0.0290
     57 H          -2.2743   -0.0260   -1.6498 H       1  UNK1        0.0290
     58 H           1.6000   -2.5347    5.1086 H       1  UNK1        0.0456
     59 H           3.1448   -1.6327    5.1260 H       1  UNK1        0.0456
     60 H           3.1393   -3.4173    4.9010 H       1  UNK1        0.0456
     61 H          -1.8514   -4.0813    0.1108 H       1  UNK1        0.0465
     62 H          -2.3950   -3.6986   -1.5514 H       1  UNK1        0.0465
     63 H          -5.3739   -5.8069    0.3653 H       1  UNK1        0.0465
     64 H          -3.7972   -6.5041    0.2778 H       1  UNK1        0.0465
     65 H           5.3780   -2.5179    3.6987 H       1  UNK1        0.0638
     66 H           3.7331   -1.7026   -0.9354 H       1  UNK1        0.0624
     67 H          -5.1786    0.2868   -0.7735 H       1  UNK1        0.0296
     68 H           0.7636    2.0701   -6.3080 H       1  UNK1        0.0829
     69 H           4.0766    0.8304   -2.9349 H       1  UNK1        0.0635
     70 H          -3.4486    1.8553   -2.7619 H       1  UNK1        0.0232
     71 H          -5.1277    2.2217   -2.3323 H       1  UNK1        0.0232
     72 H          -4.7431    0.7226   -3.1885 H       1  UNK1        0.0232
     73 H          -2.7089    1.9928   -0.1583 H       1  UNK1        0.0232
     74 H          -3.9041    1.3409    0.9841 H       1  UNK1        0.0232
     75 H          -4.3556    2.6377   -0.1013 H       1  UNK1        0.0232
     76 H          -1.8614   -6.5091   -0.4728 H       1  UNK1        0.0280
     77 H          -0.7490   -5.5604   -1.4135 H       1  UNK1        0.0280
     78 H          -5.8379   -5.9777   -1.8889 H       1  UNK1        0.0280
     79 H          -4.9204   -7.4382   -1.5763 H       1  UNK1        0.0280
     80 H           6.1423   -1.8538   -0.4783 H       1  UNK1        0.0618
     81 H           6.9678   -2.2654    1.8087 H       1  UNK1        0.0618
     82 H           2.3410    0.1976   -6.8061 H       1  UNK1        0.0633
     83 H           4.0159   -0.4268   -5.0541 H       1  UNK1        0.0619
     84 H          -2.2552   -7.3455   -2.5977 H       1  UNK1        0.0266
     85 H          -1.8628   -5.8324   -3.3869 H       1  UNK1        0.0266
     86 H          -4.0221   -4.8909   -2.9943 H       1  UNK1        0.0266
     87 H          -4.2268   -6.4798   -3.6855 H       1  UNK1        0.0266
@<TRIPOS>BOND
     1     2     4   ar
     2     3     9   am
     3     1     4   ar
     4     5    13    1
     5     1     6   ar
     6     7    11   am
     7     6     8   ar
     8     9    14    1
     9     3    10   am
    10    11    13    1
    11     5    12   am
    12    13    16    1
    13     7    14    1
    14    12    15    1
    15     1    16    1
    16    15    17    1
    17    15    18    1
    18     3    19    2
    19     7    20    2
    20     5    21    2
    21    22    25   ar
    22    17    23   ar
    23    14    24    1
    24    18    25    1
    25    17    26   ar
    26     2    27    1
    27    10    28    1
    28    10    29    1
    29     8    30   ar
    30     6    31   ar
    31    24    32    1
    32    22    33   ar
    33    25    34   ar
    34    32    35    1
    35    32    36    1
    36    28    37    1
    37    29    38    1
    38    31    39   ar
    39    39    40   ar
    40    41    42   ar
    41    34    42   ar
    42    37    43    1
    43    38    44    1
    44     2     8   ar
    45    30    40   ar
    46    33    41   ar
    47    43    44    1
    48     4    45    1
    49     9    46    1
    50    11    47    1
    51    12    48    1
    52    13    49    1
    53    14    50    1
    54    15    51    1
    55    16    52    1
    56    16    53    1
    57    18    54    1
    58    18    55    1
    59    24    56    1
    60    24    57    1
    61    27    58    1
    62    27    59    1
    63    27    60    1
    64    28    61    1
    65    28    62    1
    66    29    63    1
    67    29    64    1
    68    30    65    1
    69    31    66    1
    70    32    67    1
    71    33    68    1
    72    34    69    1
    73    35    70    1
    74    35    71    1
    75    35    72    1
    76    36    73    1
    77    36    74    1
    78    36    75    1
    79    37    76    1
    80    37    77    1
    81    38    78    1
    82    38    79    1
    83    39    80    1
    84    40    81    1
    85    41    82    1
    86    42    83    1
    87    43    84    1
    88    43    85    1
    89    44    86    1
    90    44    87    1
@<TRIPOS>MOLECULE
HTS1204-03362316-01
 87 90 0 0 0
SMALL
USER_CHARGES

@<TRIPOS>ATOM
      1 C1          1.9122   -1.4796    1.2880 C.ar    1  UNK1       -0.0199
      2 N1          2.5681   -2.5649    3.1250 N.ar    1  UNK1       -0.3494
      3 C2         -2.2991   -2.5625   -1.5672 C.2     1  UNK1        0.3028
      4 C3          1.6467   -2.5571    2.1128 C.ar    1  UNK1        0.0086
      5 C4         -0.1484    1.1167    0.2820 C.2     1  UNK1        0.2342
      6 C5          3.0637   -0.8245    1.8290 C.ar    1  UNK1        0.0031
      7 C6         -2.4376   -1.0812    1.1461 C.2     1  UNK1        0.2340
      8 C7          3.4286   -1.4969    2.9972 C.ar    1  UNK1        0.0491
      9 N2         -2.6719   -1.2600   -1.3763 N.am    1  UNK1       -0.2879
     10 N3         -1.4064   -2.7695   -2.6129 N.am    1  UNK1       -0.2856
     11 N4         -1.0733   -0.9755    1.1512 N.am    1  UNK1       -0.3022
     12 N5          0.5243    1.6240    1.3699 N.am    1  UNK1       -0.3054
     13 C8         -0.1663   -0.4117    0.1475 C.3     1  UNK1        0.1034
     14 C9         -3.2846   -0.7914   -0.1340 C.3     1  UNK1        0.1011
     15 C10         0.8756    3.0672    1.4609 C.3     1  UNK1        0.0680
     16 C11         1.1902   -1.1194    0.0244 C.3     1  UNK1        0.0013
     17 C12         1.9375    3.5329    0.4052 C.2     1  UNK1        0.0623
     18 C13        -0.3084    4.0469    1.4200 C.3     1  UNK1        0.0133
     19 O1         -2.6562   -3.4592   -0.8083 O.2     1  UNK1       -0.2526
     20 O2         -2.9739   -1.2735    2.2440 O.2     1  UNK1       -0.2738
     21 O3         -0.8724    1.7887   -0.4584 O.2     1  UNK1       -0.2738
     22 N6         -1.2372    4.6556    3.6127 N.ar    1  UNK1       -0.2598
     23 O4          2.3078    2.6469   -0.4259 O.co2   1  UNK1       -0.5479
     24 C14        -4.7437   -1.2787   -0.0267 C.3     1  UNK1       -0.0236
     25 C15        -1.3157    3.8384    2.5310 C.ar    1  UNK1        0.0434
     26 O5          2.3700    4.7130    0.5399 O.co2   1  UNK1       -0.5479
     27 C16         2.6479   -3.5716    4.1584 C.3     1  UNK1        0.0119
     28 C17        -1.0478   -1.7500   -3.6097 C.3     1  UNK1        0.0161
     29 C18        -0.7155   -4.0545   -2.6642 C.3     1  UNK1        0.0161
     30 C19         4.5025   -1.0709    3.7968 C.ar    1  UNK1       -0.0376
     31 C20         3.8246    0.2913    1.4279 C.ar    1  UNK1       -0.0523
     32 C21        -5.6759   -0.4458    0.8830 C.3     1  UNK1       -0.0446
     33 C22        -2.1369    4.4688    4.6023 C.ar    1  UNK1        0.0279
     34 C23        -2.2920    2.8486    2.4303 C.ar    1  UNK1       -0.0403
     35 C24        -7.0680   -1.0880    0.9071 C.3     1  UNK1       -0.0626
     36 C25        -5.7995    1.0128    0.4390 C.3     1  UNK1       -0.0626
     37 C26        -0.1971   -2.2280   -4.7869 C.3     1  UNK1       -0.0371
     38 C27        -1.2266   -4.9709   -3.7742 C.3     1  UNK1       -0.0371
     39 C28         4.8842    0.7341    2.2214 C.ar    1  UNK1       -0.0611
     40 C29         5.2146    0.0632    3.3927 C.ar    1  UNK1       -0.0598
     41 C30        -3.1221    3.4966    4.5821 C.ar    1  UNK1       -0.0436
     42 C31        -3.1963    2.6681    3.4724 C.ar    1  UNK1       -0.0586
     43 C32        -0.8617   -3.2696   -5.6873 C.3     1  UNK1       -0.0516
     44 C33        -1.7936   -4.2689   -5.0064 C.3     1  UNK1       -0.0516
     45 H           0.8826   -3.3220    2.0425 H       1  UNK1        0.0812
     46 H          -2.3414   -0.5430   -2.0005 H       1  UNK1        0.1510
     47 H          -0.6964   -1.0372    2.0893 H       1  UNK1        0.1495
     48 H           1.2431    1.0286    1.7560 H       1  UNK1        0.1494
     49 H          -0.6016   -0.5486   -0.8354 H       1  UNK1        0.0598
     50 H          -3.2811    0.2986   -0.2377 H       1  UNK1        0.0595
     51 H           1.3666    3.1587    2.4397 H       1  UNK1        0.0564
     52 H           1.8492   -0.5285   -0.6234 H       1  UNK1        0.0337
     53 H           1.0223   -2.0642   -0.5142 H       1  UNK1        0.0337
     54 H          -0.8257    4.0190    0.4545 H       1  UNK1        0.0350
     55 H           0.0614    5.0771    1.5084 H       1  UNK1        0.0350
     56 H          -4.7500   -2.3179    0.3268 H       1  UNK1        0.0290
     57 H          -5.1844   -1.2988   -1.0334 H       1  UNK1        0.0290
     58 H           1.9366   -4.3737    3.9463 H       1  UNK1        0.0456
     59 H           2.4097   -3.1027    5.1160 H       1  UNK1        0.0456
     60 H           3.6624   -3.9796    4.1696 H       1  UNK1        0.0456
     61 H          -0.4890   -0.9682   -3.0832 H       1  UNK1        0.0465
     62 H          -1.9736   -1.2955   -3.9817 H       1  UNK1        0.0465
     63 H          -0.8079   -4.5820   -1.7071 H       1  UNK1        0.0465
     64 H           0.3584   -3.8653   -2.7682 H       1  UNK1        0.0465
     65 H           4.7728   -1.5920    4.7081 H       1  UNK1        0.0638
     66 H           3.5816    0.8307    0.5142 H       1  UNK1        0.0624
     67 H          -5.2937   -0.4563    1.9093 H       1  UNK1        0.0296
     68 H          -2.0379    5.1477    5.4433 H       1  UNK1        0.0829
     69 H          -2.3475    2.2173    1.5519 H       1  UNK1        0.0635
     70 H          -7.5237   -1.0860   -0.0893 H       1  UNK1        0.0232
     71 H          -7.7363   -0.5460    1.5849 H       1  UNK1        0.0232
     72 H          -7.0136   -2.1255    1.2533 H       1  UNK1        0.0232
     73 H          -6.0920    1.0851   -0.6137 H       1  UNK1        0.0232
     74 H          -4.8583    1.5532    0.5721 H       1  UNK1        0.0232
     75 H          -6.5542    1.5375    1.0355 H       1  UNK1        0.0232
     76 H           0.7619   -2.6178   -4.4267 H       1  UNK1        0.0280
     77 H           0.0653   -1.3590   -5.4038 H       1  UNK1        0.0280
     78 H          -2.0234   -5.6021   -3.3601 H       1  UNK1        0.0280
     79 H          -0.4212   -5.6549   -4.0677 H       1  UNK1        0.0280
     80 H           5.4361    1.6197    1.9138 H       1  UNK1        0.0618
     81 H           6.0374    0.4288    4.0005 H       1  UNK1        0.0618
     82 H          -3.8116    3.3868    5.4094 H       1  UNK1        0.0633
     83 H          -3.9436    1.8826    3.4116 H       1  UNK1        0.0619
     84 H          -0.0758   -3.8135   -6.2258 H       1  UNK1        0.0266
     85 H          -1.4429   -2.7438   -6.4555 H       1  UNK1        0.0266
     86 H          -2.7281   -3.7618   -4.7340 H       1  UNK1        0.0266
     87 H          -2.0802   -5.0321   -5.7406 H       1  UNK1        0.0266
@<TRIPOS>BOND
     1     2     4   ar
     2     3     9   am
     3     1     4   ar
     4     5    13    1
     5     1     6   ar
     6     7    11   am
     7     6     8   ar
     8     9    14    1
     9     3    10   am
    10    11    13    1
    11     5    12   am
    12    13    16    1
    13     7    14    1
    14    12    15    1
    15     1    16    1
    16    15    17    1
    17    15    18    1
    18     3    19    2
    19     7    20    2
    20     5    21    2
    21    22    25   ar
    22    17    23   ar
    23    14    24    1
    24    18    25    1
    25    17    26   ar
    26     2    27    1
    27    10    28    1
    28    10    29    1
    29     8    30   ar
    30     6    31   ar
    31    24    32    1
    32    22    33   ar
    33    25    34   ar
    34    32    35    1
    35    32    36    1
    36    28    37    1
    37    29    38    1
    38    31    39   ar
    39    39    40   ar
    40    41    42   ar
    41    34    42   ar
    42    37    43    1
    43    38    44    1
    44     2     8   ar
    45    30    40   ar
    46    33    41   ar
    47    43    44    1
    48     4    45    1
    49     9    46    1
    50    11    47    1
    51    12    48    1
    52    13    49    1
    53    14    50    1
    54    15    51    1
    55    16    52    1
    56    16    53    1
    57    18    54    1
    58    18    55    1
    59    24    56    1
    60    24    57    1
    61    27    58    1
    62    27    59    1
    63    27    60    1
    64    28    61    1
    65    28    62    1
    66    29    63    1
    67    29    64    1
    68    30    65    1
    69    31    66    1
    70    32    67    1
    71    33    68    1
    72    34    69    1
    73    35    70    1
    74    35    71    1
    75    35    72    1
    76    36    73    1
    77    36    74    1
    78    36    75    1
    79    37    76    1
    80    37    77    1
    81    38    78    1
    82    38    79    1
    83    39    80    1
    84    40    81    1
    85    41    82    1
    86    42    83    1
    87    43    84    1
    88    43    85    1
    89    44    86    1
    90    44    87    1
@<TRIPOS>MOLECULE
HTS1204-03362316-01
 87 90 0 0 0
SMALL
USER_CHARGES

@<TRIPOS>ATOM
      1 C1          1.7955   -1.6968    1.1568 C.ar    1  UNK1       -0.0199
      2 N1          2.4049   -2.7028    3.0563 N.ar    1  UNK1       -0.3494
      3 C2         -5.1328   -2.1748    0.0997 C.2     1  UNK1        0.3028
      4 C3          1.5014   -2.7314    2.0267 C.ar    1  UNK1        0.0086
      5 C4          0.0838    1.0226    0.0969 C.2     1  UNK1        0.2342
      6 C5          2.9465   -1.0342    1.6908 C.ar    1  UNK1        0.0031
      7 C6         -2.4786   -0.6616    1.0303 C.2     1  UNK1        0.2340
      8 C7          3.2684   -1.6413    2.9063 C.ar    1  UNK1        0.0491
      9 N2         -3.9714   -1.7960   -0.5288 N.am    1  UNK1       -0.2879
     10 N3         -5.5408   -3.4734   -0.2031 N.am    1  UNK1       -0.2856
     11 N4         -1.1300   -0.9156    0.9872 N.am    1  UNK1       -0.3022
     12 N5          0.5846    1.4409    1.3122 N.am    1  UNK1       -0.3054
     13 C8         -0.1739   -0.4928   -0.0479 C.3     1  UNK1        0.1034
     14 C9         -3.2931   -0.5105   -0.2822 C.3     1  UNK1        0.1011
     15 C10         0.9606    2.8610    1.5776 C.3     1  UNK1        0.0680
     16 C11         1.0904   -1.3662   -0.1283 C.3     1  UNK1        0.0013
     17 C12         2.1724    3.4139    0.7529 C.2     1  UNK1        0.0623
     18 C13        -0.2049    3.8645    1.4877 C.3     1  UNK1        0.0133
     19 O1         -5.7786   -1.4476    0.8434 O.2     1  UNK1       -0.2526
     20 O2         -3.0120   -0.7191    2.1417 O.2     1  UNK1       -0.2738
     21 O3         -0.2858    1.7807   -0.7964 O.2     1  UNK1       -0.2738
     22 N6         -1.3205    4.9240    3.4056 N.ar    1  UNK1       -0.2598
     23 O4          2.6063    2.6700   -0.1759 O.co2   1  UNK1       -0.5479
     24 C14        -4.2418    0.7039   -0.2745 C.3     1  UNK1       -0.0236
     25 C15        -1.1745    3.8024    2.6539 C.ar    1  UNK1        0.0434
     26 O5          2.6533    4.5101    1.1657 O.co2   1  UNK1       -0.5479
     27 C16         2.4654   -3.6644    4.1334 C.3     1  UNK1        0.0119
     28 C17        -5.0363   -4.2311   -1.3529 C.3     1  UNK1        0.0161
     29 C18        -6.6748   -4.0108    0.5432 C.3     1  UNK1        0.0161
     30 C19         4.3087   -1.1680    3.7249 C.ar    1  UNK1       -0.0376
     31 C20         3.7269    0.0539    1.2585 C.ar    1  UNK1       -0.0523
     32 C21        -3.5520    2.0454   -0.5948 C.3     1  UNK1       -0.0446
     33 C22        -2.2069    4.8884    4.4244 C.ar    1  UNK1        0.0279
     34 C23        -1.9216    2.6562    2.9121 C.ar    1  UNK1       -0.0403
     35 C24        -4.4859    3.2148   -0.2713 C.3     1  UNK1       -0.0626
     36 C25        -3.1149    2.1464   -2.0588 C.3     1  UNK1       -0.0626
     37 C26        -5.9249   -5.3787   -1.8368 C.3     1  UNK1       -0.0371
     38 C27        -8.0158   -3.8041   -0.1629 C.3     1  UNK1       -0.0371
     39 C28         4.7443    0.5532    2.0745 C.ar    1  UNK1       -0.0611
     40 C29         5.0273   -0.0483    3.2945 C.ar    1  UNK1       -0.0598
     41 C30        -2.9786    3.7851    4.7425 C.ar    1  UNK1       -0.0436
     42 C31        -2.8309    2.6461    3.9663 C.ar    1  UNK1       -0.0586
     43 C32        -7.2987   -4.9582   -2.3659 C.3     1  UNK1       -0.0516
     44 C33        -7.9614   -3.7600   -1.6893 C.3     1  UNK1       -0.0516
     45 H           0.7299   -3.4897    1.9822 H       1  UNK1        0.0812
     46 H          -3.3378   -2.5623   -0.6814 H       1  UNK1        0.1510
     47 H          -0.7466   -0.9383    1.9264 H       1  UNK1        0.1495
     48 H           1.1659    0.7796    1.8059 H       1  UNK1        0.1494
     49 H          -0.6609   -0.6073   -1.0211 H       1  UNK1        0.0598
     50 H          -2.6209   -0.4231   -1.1328 H       1  UNK1        0.0595
     51 H           1.3174    2.8422    2.6176 H       1  UNK1        0.0564
     52 H           1.8020   -0.9080   -0.8263 H       1  UNK1        0.0337
     53 H           0.8027   -2.3242   -0.5846 H       1  UNK1        0.0337
     54 H          -0.7796    3.7350    0.5649 H       1  UNK1        0.0350
     55 H           0.1806    4.8909    1.4437 H       1  UNK1        0.0350
     56 H          -4.7180    0.7896    0.7099 H       1  UNK1        0.0290
     57 H          -5.0489    0.5472   -1.0027 H       1  UNK1        0.0290
     58 H           1.7597   -4.4763    3.9409 H       1  UNK1        0.0456
     59 H           2.2084   -3.1558    5.0657 H       1  UNK1        0.0456
     60 H           3.4810   -4.0685    4.1813 H       1  UNK1        0.0456
     61 H          -4.0660   -4.6424   -1.0506 H       1  UNK1        0.0465
     62 H          -4.8526   -3.5378   -2.1822 H       1  UNK1        0.0465
     63 H          -6.7244   -3.5430    1.5344 H       1  UNK1        0.0465
     64 H          -6.4911   -5.0709    0.7427 H       1  UNK1        0.0465
     65 H           4.5410   -1.6345    4.6756 H       1  UNK1        0.0638
     66 H           3.5174    0.5478    0.3121 H       1  UNK1        0.0624
     67 H          -2.6709    2.1456    0.0435 H       1  UNK1        0.0296
     68 H          -2.2828    5.8083    4.9953 H       1  UNK1        0.0829
     69 H          -1.8107    1.7736    2.2977 H       1  UNK1        0.0635
     70 H          -5.3846    3.1901   -0.8964 H       1  UNK1        0.0232
     71 H          -3.9803    4.1716   -0.4421 H       1  UNK1        0.0232
     72 H          -4.7985    3.1882    0.7776 H       1  UNK1        0.0232
     73 H          -3.9738    2.0854   -2.7354 H       1  UNK1        0.0232
     74 H          -2.4156    1.3534   -2.3358 H       1  UNK1        0.0232
     75 H          -2.6096    3.1014   -2.2427 H       1  UNK1        0.0232
     76 H          -6.0552   -6.1198   -1.0401 H       1  UNK1        0.0280
     77 H          -5.3995   -5.9138   -2.6382 H       1  UNK1        0.0280
     78 H          -8.4451   -2.8530    0.1781 H       1  UNK1        0.0280
     79 H          -8.7132   -4.5840    0.1659 H       1  UNK1        0.0280
     80 H           5.2904    1.4365    1.7480 H       1  UNK1        0.0618
     81 H           5.8133    0.3654    3.9204 H       1  UNK1        0.0618
     82 H          -3.6772    3.8135    5.5689 H       1  UNK1        0.0633
     83 H          -3.4163    1.7524    4.1648 H       1  UNK1        0.0619
     84 H          -7.9709   -5.8234   -2.3104 H       1  UNK1        0.0266
     85 H          -7.2018   -4.7231   -3.4338 H       1  UNK1        0.0266
     86 H          -7.4512   -2.8411   -2.0054 H       1  UNK1        0.0266
     87 H          -8.9861   -3.6682   -2.0712 H       1  UNK1        0.0266
@<TRIPOS>BOND
     1     2     4   ar
     2     3     9   am
     3     1     4   ar
     4     5    13    1
     5     1     6   ar
     6     7    11   am
     7     6     8   ar
     8     9    14    1
     9     3    10   am
    10    11    13    1
    11     5    12   am
    12    13    16    1
    13     7    14    1
    14    12    15    1
    15     1    16    1
    16    15    17    1
    17    15    18    1
    18     3    19    2
    19     7    20    2
    20     5    21    2
    21    22    25   ar
    22    17    23   ar
    23    14    24    1
    24    18    25    1
    25    17    26   ar
    26     2    27    1
    27    10    28    1
    28    10    29    1
    29     8    30   ar
    30     6    31   ar
    31    24    32    1
    32    22    33   ar
    33    25    34   ar
    34    32    35    1
    35    32    36    1
    36    28    37    1
    37    29    38    1
    38    31    39   ar
    39    39    40   ar
    40    41    42   ar
    41    34    42   ar
    42    37    43    1
    43    38    44    1
    44     2     8   ar
    45    30    40   ar
    46    33    41   ar
    47    43    44    1
    48     4    45    1
    49     9    46    1
    50    11    47    1
    51    12    48    1
    52    13    49    1
    53    14    50    1
    54    15    51    1
    55    16    52    1
    56    16    53    1
    57    18    54    1
    58    18    55    1
    59    24    56    1
    60    24    57    1
    61    27    58    1
    62    27    59    1
    63    27    60    1
    64    28    61    1
    65    28    62    1
    66    29    63    1
    67    29    64    1
    68    30    65    1
    69    31    66    1
    70    32    67    1
    71    33    68    1
    72    34    69    1
    73    35    70    1
    74    35    71    1
    75    35    72    1
    76    36    73    1
    77    36    74    1
    78    36    75    1
    79    37    76    1
    80    37    77    1
    81    38    78    1
    82    38    79    1
    83    39    80    1
    84    40    81    1
    85    41    82    1
    86    42    83    1
    87    43    84    1
    88    43    85    1
    89    44    86    1
    90    44    87    1
@<TRIPOS>MOLECULE
HTS1204-03362316-01
 87 90 0 0 0
SMALL
USER_CHARGES

@<TRIPOS>ATOM
      1 C1          1.4395   -1.9257   -1.0816 C.ar    1  UNK1       -0.0199
      2 N1          2.1954   -1.6390   -3.1627 N.ar    1  UNK1       -0.3494
      3 C2         -5.4399   -0.3756    2.7912 C.2     1  UNK1        0.3028
      4 C3          1.1486   -1.3812   -2.3183 C.ar    1  UNK1        0.0086
      5 C4          0.7040    0.6804    0.5299 C.2     1  UNK1        0.2342
      6 C5          2.7076   -2.5882   -1.2169 C.ar    1  UNK1        0.0031
      7 C6         -2.2344   -1.2871    1.7017 C.2     1  UNK1        0.2340
      8 C7          3.1555   -2.3948   -2.5263 C.ar    1  UNK1        0.0491
      9 N2         -4.1034   -0.1357    2.7451 N.am    1  UNK1       -0.2879
     10 N3         -6.2257    0.6722    2.3177 N.am    1  UNK1       -0.2856
     11 N4         -0.9831   -0.7049    1.6492 N.am    1  UNK1       -0.3022
     12 N5          0.1415    1.9281    0.6082 N.am    1  UNK1       -0.3054
     13 C8         -0.2025   -0.5734    0.4109 C.3     1  UNK1        0.1034
     14 C9         -2.9863   -1.0332    3.0345 C.3     1  UNK1        0.1011
     15 C10        -1.2557    2.2992    0.9544 C.3     1  UNK1        0.0680
     16 C11         0.6125   -1.8596    0.1765 C.3     1  UNK1        0.0013
     17 C12        -1.6439    2.0882    2.4487 C.2     1  UNK1        0.0623
     18 C13        -1.5311    3.7879    0.6839 C.3     1  UNK1        0.0133
     19 O1         -5.9444   -1.3988    3.2507 O.2     1  UNK1       -0.2526
     20 O2         -2.7164   -1.8994    0.7483 O.2     1  UNK1       -0.2738
     21 O3          1.9377    0.6226    0.5179 O.2     1  UNK1       -0.2738
     22 N6         -1.0477    3.8241   -1.7214 N.ar    1  UNK1       -0.2598
     23 O4         -0.7646    1.5330    3.1734 O.co2   1  UNK1       -0.5479
     24 C14        -3.2723   -2.3548    3.7581 C.3     1  UNK1       -0.0236
     25 C15        -1.9533    4.0584   -0.7418 C.ar    1  UNK1        0.0434
     26 O5         -2.8509    2.3335    2.7457 O.co2   1  UNK1       -0.5479
     27 C16         2.2888   -1.1661   -4.5245 C.3     1  UNK1        0.0119
     28 C17        -7.6165    0.7242    2.7679 C.3     1  UNK1        0.0161
     29 C18        -5.7996    1.5479    1.2234 C.3     1  UNK1        0.0161
     30 C19         4.3809   -2.9104   -2.9827 C.ar    1  UNK1       -0.0376
     31 C20         3.5213   -3.3289   -0.3319 C.ar    1  UNK1       -0.0523
     32 C21        -3.6917   -2.1996    5.2390 C.3     1  UNK1       -0.0446
     33 C22        -1.4192    4.0811   -2.9919 C.ar    1  UNK1        0.0279
     34 C23        -3.2196    4.5759   -1.0122 C.ar    1  UNK1       -0.0403
     35 C24        -2.6215   -1.5131    6.0920 C.3     1  UNK1       -0.0626
     36 C25        -4.0146   -3.5742    5.8296 C.3     1  UNK1       -0.0626
     37 C26        -8.5548    1.6172    1.9572 C.3     1  UNK1       -0.0371
     38 C27        -6.3321    1.0941   -0.1414 C.3     1  UNK1       -0.0371
     39 C28         4.7423   -3.8491   -0.7754 C.ar    1  UNK1       -0.0611
     40 C29         5.1644   -3.6411   -2.0843 C.ar    1  UNK1       -0.0598
     41 C30        -2.6537    4.5969   -3.3444 C.ar    1  UNK1       -0.0436
     42 C31        -3.5683    4.8535   -2.3312 C.ar    1  UNK1       -0.0586
     43 C32        -8.8261    1.1117    0.5395 C.3     1  UNK1       -0.0516
     44 C33        -7.6782    0.3700   -0.1401 C.3     1  UNK1       -0.0516
     45 H           0.2957   -0.8020   -2.6482 H       1  UNK1        0.0812
     46 H          -3.8386    0.8554    2.7720 H       1  UNK1        0.1510
     47 H          -0.7103   -0.0780    2.4208 H       1  UNK1        0.1495
     48 H           0.8444    2.6248    0.8116 H       1  UNK1        0.1494
     49 H          -0.8962   -0.4128   -0.4235 H       1  UNK1        0.0598
     50 H          -2.3209   -0.4495    3.6731 H       1  UNK1        0.0595
     51 H          -1.9229    1.6599    0.3619 H       1  UNK1        0.0564
     52 H          -0.0670   -2.7221    0.1634 H       1  UNK1        0.0337
     53 H           1.2726   -2.0130    1.0410 H       1  UNK1        0.0337
     54 H          -0.6354    4.3867    0.8899 H       1  UNK1        0.0350
     55 H          -2.3054    4.1943    1.3453 H       1  UNK1        0.0350
     56 H          -2.3641   -2.9727    3.7229 H       1  UNK1        0.0290
     57 H          -4.0292   -2.9288    3.2094 H       1  UNK1        0.0290
     58 H           1.4075   -0.5679   -4.7688 H       1  UNK1        0.0456
     59 H           2.3446   -2.0320   -5.1891 H       1  UNK1        0.0456
     60 H           3.1881   -0.5507   -4.6169 H       1  UNK1        0.0456
     61 H          -7.5803    1.0993    3.7992 H       1  UNK1        0.0465
     62 H          -8.0289   -0.2903    2.8221 H       1  UNK1        0.0465
     63 H          -4.7119    1.5855    1.1354 H       1  UNK1        0.0465
     64 H          -6.1096    2.5723    1.4530 H       1  UNK1        0.0465
     65 H           4.7201   -2.7446   -3.9991 H       1  UNK1        0.0638
     66 H           3.2047   -3.4861    0.6948 H       1  UNK1        0.0624
     67 H          -4.6000   -1.5922    5.3051 H       1  UNK1        0.0296
     68 H          -0.6684    3.8538   -3.7426 H       1  UNK1        0.0829
     69 H          -3.9239    4.7661   -0.2075 H       1  UNK1        0.0635
     70 H          -1.6489   -2.0041    5.9826 H       1  UNK1        0.0232
     71 H          -2.8958   -1.5344    7.1518 H       1  UNK1        0.0232
     72 H          -2.5073   -0.4599    5.8173 H       1  UNK1        0.0232
     73 H          -3.1331   -4.2244    5.8274 H       1  UNK1        0.0232
     74 H          -4.8054   -4.0686    5.2562 H       1  UNK1        0.0232
     75 H          -4.3632   -3.4800    6.8635 H       1  UNK1        0.0232
     76 H          -8.1719    2.6432    1.9160 H       1  UNK1        0.0280
     77 H          -9.5142    1.6927    2.4841 H       1  UNK1        0.0280
     78 H          -5.5975    0.4095   -0.5856 H       1  UNK1        0.0280
     79 H          -6.3764    1.9626   -0.8098 H       1  UNK1        0.0280
     80 H           5.3647   -4.4120   -0.0854 H       1  UNK1        0.0618
     81 H           6.1189   -4.0452   -2.4115 H       1  UNK1        0.0618
     82 H          -2.8948    4.7928   -4.3820 H       1  UNK1        0.0633
     83 H          -4.5464    5.2641   -2.5627 H       1  UNK1        0.0619
     84 H          -9.1381    1.9588   -0.0832 H       1  UNK1        0.0266
     85 H          -9.6866    0.4310    0.5744 H       1  UNK1        0.0266
     86 H          -7.5573   -0.6161    0.3276 H       1  UNK1        0.0266
     87 H          -7.9649    0.1621   -1.1789 H       1  UNK1        0.0266
@<TRIPOS>BOND
     1     2     4   ar
     2     3     9   am
     3     1     4   ar
     4     5    13    1
     5     1     6   ar
     6     7    11   am
     7     6     8   ar
     8     9    14    1
     9     3    10   am
    10    11    13    1
    11     5    12   am
    12    13    16    1
    13     7    14    1
    14    12    15    1
    15     1    16    1
    16    15    17    1
    17    15    18    1
    18     3    19    2
    19     7    20    2
    20     5    21    2
    21    22    25   ar
    22    17    23   ar
    23    14    24    1
    24    18    25    1
    25    17    26   ar
    26     2    27    1
    27    10    28    1
    28    10    29    1
    29     8    30   ar
    30     6    31   ar
    31    24    32    1
    32    22    33   ar
    33    25    34   ar
    34    32    35    1
    35    32    36    1
    36    28    37    1
    37    29    38    1
    38    31    39   ar
    39    39    40   ar
    40    41    42   ar
    41    34    42   ar
    42    37    43    1
    43    38    44    1
    44     2     8   ar
    45    30    40   ar
    46    33    41   ar
    47    43    44    1
    48     4    45    1
    49     9    46    1
    50    11    47    1
    51    12    48    1
    52    13    49    1
    53    14    50    1
    54    15    51    1
    55    16    52    1
    56    16    53    1
    57    18    54    1
    58    18    55    1
    59    24    56    1
    60    24    57    1
    61    27    58    1
    62    27    59    1
    63    27    60    1
    64    28    61    1
    65    28    62    1
    66    29    63    1
    67    29    64    1
    68    30    65    1
    69    31    66    1
    70    32    67    1
    71    33    68    1
    72    34    69    1
    73    35    70    1
    74    35    71    1
    75    35    72    1
    76    36    73    1
    77    36    74    1
    78    36    75    1
    79    37    76    1
    80    37    77    1
    81    38    78    1
    82    38    79    1
    83    39    80    1
    84    40    81    1
    85    41    82    1
    86    42    83    1
    87    43    84    1
    88    43    85    1
    89    44    86    1
    90    44    87    1
@<TRIPOS>MOLECULE
HTS1204-03362316-01
 87 90 0 0 0
SMALL
USER_CHARGES

@<TRIPOS>ATOM
      1 C1          0.1635   -3.2956   -0.1538 C.ar    1  UNK1       -0.0199
      2 N1         -0.9419   -5.2227    0.0700 N.ar    1  UNK1       -0.3494
      3 C2         -5.4177   -0.2168    3.0762 C.2     1  UNK1        0.3028
      4 C3         -0.5486   -4.0897    0.7164 C.ar    1  UNK1        0.0086
      5 C4          0.5428    0.5533    0.2056 C.2     1  UNK1        0.2342
      6 C5          0.3026   -4.0581   -1.3633 C.ar    1  UNK1        0.0031
      7 C6         -2.2956   -1.2918    1.7370 C.2     1  UNK1        0.2340
      8 C7         -0.3867   -5.2649   -1.1879 C.ar    1  UNK1        0.0491
      9 N2         -4.0916   -0.0869    2.7985 N.am    1  UNK1       -0.2879
     10 N3         -6.2255    0.7705    2.5098 N.am    1  UNK1       -0.2856
     11 N4         -0.9857   -0.8512    1.6314 N.am    1  UNK1       -0.3022
     12 N5         -0.0258    1.7748    0.3896 N.am    1  UNK1       -0.3054
     13 C8         -0.2629   -0.7776    0.3492 C.3     1  UNK1        0.1034
     14 C9         -2.9823   -1.0051    3.1057 C.3     1  UNK1        0.1011
     15 C10        -1.3500    2.1684    0.9179 C.3     1  UNK1        0.0680
     16 C11         0.7442   -1.9464    0.1639 C.3     1  UNK1        0.0013
     17 C12        -1.5484    1.9770    2.4475 C.2     1  UNK1        0.0623
     18 C13        -1.6189    3.6690    0.6980 C.3     1  UNK1        0.0133
     19 O1         -5.8961   -1.1129    3.7679 O.2     1  UNK1       -0.2526
     20 O2         -2.8921   -1.8199    0.7964 O.2     1  UNK1       -0.2738
     21 O3          1.7053    0.5672   -0.2251 O.2     1  UNK1       -0.2738
     22 N6         -1.0380    3.8298   -1.6794 N.ar    1  UNK1       -0.2598
     23 O4         -0.6057    1.3984    3.0629 O.co2   1  UNK1       -0.5479
     24 C14        -3.3602   -2.2936    3.8502 C.3     1  UNK1       -0.0236
     25 C15        -1.9876    4.0026   -0.7282 C.ar    1  UNK1        0.0434
     26 O5         -2.7039    2.2605    2.8852 O.co2   1  UNK1       -0.5479
     27 C16        -1.8118   -6.2219    0.6435 C.3     1  UNK1        0.0119
     28 C17        -7.6120    0.8378    2.9747 C.3     1  UNK1        0.0161
     29 C18        -5.8371    1.5571    1.3360 C.3     1  UNK1        0.0161
     30 C19        -0.4371   -6.2549   -2.1820 C.ar    1  UNK1       -0.0376
     31 C20         0.9658   -3.8413   -2.5904 C.ar    1  UNK1       -0.0523
     32 C21        -2.1804   -3.1371    4.3716 C.3     1  UNK1       -0.0446
     33 C22        -1.3702    4.1212   -2.9538 C.ar    1  UNK1        0.0279
     34 C23        -3.2524    4.5078   -1.0255 C.ar    1  UNK1       -0.0403
     35 C24        -2.7152   -4.3629    5.1181 C.3     1  UNK1       -0.0626
     36 C25        -1.2305   -2.3521    5.2757 C.3     1  UNK1       -0.0626
     37 C26        -8.5786    1.6451    2.1076 C.3     1  UNK1       -0.0371
     38 C27        -6.3612    0.9605    0.0254 C.3     1  UNK1       -0.0371
     39 C28         0.9302   -4.8264   -3.5853 C.ar    1  UNK1       -0.0611
     40 C29         0.2383   -6.0163   -3.3811 C.ar    1  UNK1       -0.0598
     41 C30        -2.6027    4.6233   -3.3329 C.ar    1  UNK1       -0.0436
     42 C31        -3.5578    4.8281   -2.3454 C.ar    1  UNK1       -0.0586
     43 C32        -8.8498    1.0383    0.7290 C.3     1  UNK1       -0.0516
     44 C33        -7.7080    0.2413    0.1025 C.3     1  UNK1       -0.0516
     45 H          -0.8396   -3.9013    1.7336 H       1  UNK1        0.0812
     46 H          -3.7775    0.8896    2.7908 H       1  UNK1        0.1510
     47 H          -0.6404   -0.2228    2.3720 H       1  UNK1        0.1495
     48 H           0.6367    2.5261    0.2531 H       1  UNK1        0.1494
     49 H          -0.9921   -0.7888   -0.4704 H       1  UNK1        0.0598
     50 H          -2.3130   -0.4234    3.7423 H       1  UNK1        0.0595
     51 H          -2.0993    1.5507    0.4082 H       1  UNK1        0.0564
     52 H           1.3627   -2.0378    1.0676 H       1  UNK1        0.0337
     53 H           1.4423   -1.7098   -0.6488 H       1  UNK1        0.0337
     54 H          -0.7304    4.2569    0.9642 H       1  UNK1        0.0350
     55 H          -2.4193    4.0444    1.3470 H       1  UNK1        0.0350
     56 H          -3.9857   -2.9206    3.2010 H       1  UNK1        0.0290
     57 H          -3.9668   -2.0315    4.7252 H       1  UNK1        0.0290
     58 H          -2.2195   -5.8536    1.5895 H       1  UNK1        0.0456
     59 H          -1.2272   -7.1284    0.8178 H       1  UNK1        0.0456
     60 H          -2.6306   -6.4149   -0.0538 H       1  UNK1        0.0456
     61 H          -7.5726    1.2897    3.9737 H       1  UNK1        0.0465
     62 H          -8.0048   -0.1773    3.1068 H       1  UNK1        0.0465
     63 H          -4.7523    1.6410    1.2416 H       1  UNK1        0.0465
     64 H          -6.1885    2.5846    1.4716 H       1  UNK1        0.0465
     65 H          -0.9780   -7.1821   -2.0264 H       1  UNK1        0.0638
     66 H           1.5109   -2.9174   -2.7607 H       1  UNK1        0.0624
     67 H          -1.6037   -3.5026    3.5242 H       1  UNK1        0.0296
     68 H          -0.5902    3.9319   -3.6845 H       1  UNK1        0.0829
     69 H          -3.9887    4.6543   -0.2414 H       1  UNK1        0.0635
     70 H          -3.2883   -4.0693    6.0043 H       1  UNK1        0.0232
     71 H          -1.8936   -5.0090    5.4449 H       1  UNK1        0.0232
     72 H          -3.3691   -4.9582    4.4718 H       1  UNK1        0.0232
     73 H          -1.7715   -1.8620    6.0916 H       1  UNK1        0.0232
     74 H          -0.6894   -1.5857    4.7122 H       1  UNK1        0.0232
     75 H          -0.4770   -3.0137    5.7164 H       1  UNK1        0.0232
     76 H          -8.2241    2.6756    1.9927 H       1  UNK1        0.0280
     77 H          -9.5362    1.7325    2.6367 H       1  UNK1        0.0280
     78 H          -5.6249    0.2342   -0.3429 H       1  UNK1        0.0280
     79 H          -6.4068    1.7544   -0.7298 H       1  UNK1        0.0280
     80 H           1.4497   -4.6564   -4.5244 H       1  UNK1        0.0618
     81 H           0.2199   -6.7705   -4.1630 H       1  UNK1        0.0618
     82 H          -2.8120    4.8468   -4.3716 H       1  UNK1        0.0633
     83 H          -4.5345    5.2278   -2.5979 H       1  UNK1        0.0619
     84 H          -9.1581    1.8392    0.0461 H       1  UNK1        0.0266
     85 H          -9.7143    0.3667    0.8127 H       1  UNK1        0.0266
     86 H          -7.5826   -0.7014    0.6509 H       1  UNK1        0.0266
     87 H          -8.0048   -0.0532   -0.9121 H       1  UNK1        0.0266
@<TRIPOS>BOND
     1     2     4   ar
     2     3     9   am
     3     1     4   ar
     4     5    13    1
     5     1     6   ar
     6     7    11   am
     7     6     8   ar
     8     9    14    1
     9     3    10   am
    10    11    13    1
    11     5    12   am
    12    13    16    1
    13     7    14    1
    14    12    15    1
    15     1    16    1
    16    15    17    1
    17    15    18    1
    18     3    19    2
    19     7    20    2
    20     5    21    2
    21    22    25   ar
    22    17    23   ar
    23    14    24    1
    24    18    25    1
    25    17    26   ar
    26     2    27    1
    27    10    28    1
    28    10    29    1
    29     8    30   ar
    30     6    31   ar
    31    24    32    1
    32    22    33   ar
    33    25    34   ar
    34    32    35    1
    35    32    36    1
    36    28    37    1
    37    29    38    1
    38    31    39   ar
    39    39    40   ar
    40    41    42   ar
    41    34    42   ar
    42    37    43    1
    43    38    44    1
    44     2     8   ar
    45    30    40   ar
    46    33    41   ar
    47    43    44    1
    48     4    45    1
    49     9    46    1
    50    11    47    1
    51    12    48    1
    52    13    49    1
    53    14    50    1
    54    15    51    1
    55    16    52    1
    56    16    53    1
    57    18    54    1
    58    18    55    1
    59    24    56    1
    60    24    57    1
    61    27    58    1
    62    27    59    1
    63    27    60    1
    64    28    61    1
    65    28    62    1
    66    29    63    1
    67    29    64    1
    68    30    65    1
    69    31    66    1
    70    32    67    1
    71    33    68    1
    72    34    69    1
    73    35    70    1
    74    35    71    1
    75    35    72    1
    76    36    73    1
    77    36    74    1
    78    36    75    1
    79    37    76    1
    80    37    77    1
    81    38    78    1
    82    38    79    1
    83    39    80    1
    84    40    81    1
    85    41    82    1
    86    42    83    1
    87    43    84    1
    88    43    85    1
    89    44    86    1
    90    44    87    1
@<TRIPOS>MOLECULE
HTS1204-03362316-01
 87 90 0 0 0
SMALL
USER_CHARGES

@<TRIPOS>ATOM
      1 C1          1.8040   -1.7123    0.8145 C.ar    1  UNK1       -0.0199
      2 N1          3.2876   -1.6654    2.4927 N.ar    1  UNK1       -0.3494
      3 C2         -3.9627   -2.2029    1.2258 C.2     1  UNK1        0.3028
      4 C3          2.5903   -0.8969    1.6072 C.ar    1  UNK1        0.0086
      5 C4          0.7521    1.2057    0.2422 C.2     1  UNK1        0.2342
      6 C5          2.1163   -3.0597    1.2069 C.ar    1  UNK1        0.0031
      7 C6         -2.0637    0.1973    1.6337 C.2     1  UNK1        0.2340
      8 C7          3.0454   -2.9978    2.2540 C.ar    1  UNK1        0.0491
      9 N2         -3.2282   -1.9237    2.3550 N.am    1  UNK1       -0.2879
     10 N3         -4.4327   -3.5029    1.1269 N.am    1  UNK1       -0.2856
     11 N4         -0.9632   -0.5152    1.2285 N.am    1  UNK1       -0.3022
     12 N5          0.3686    2.1109    1.1948 N.am    1  UNK1       -0.3054
     13 C8         -0.1050   -0.0914    0.1086 C.3     1  UNK1        0.1034
     14 C9         -2.9675   -0.5120    2.6653 C.3     1  UNK1        0.1011
     15 C10         1.1224    3.3492    1.4977 C.3     1  UNK1        0.0680
     16 C11         0.8505   -1.2607   -0.2766 C.3     1  UNK1        0.0013
     17 C12         0.3608    4.7001    1.3362 C.2     1  UNK1        0.0623
     18 C13         1.8270    3.2384    2.8577 C.3     1  UNK1        0.0133
     19 O1         -4.1951   -1.3600    0.3665 O.2     1  UNK1       -0.2526
     20 O2         -2.2609    1.3637    1.3096 O.2     1  UNK1       -0.2738
     21 O3          1.7177    1.3993   -0.5043 O.2     1  UNK1       -0.2738
     22 N6         -0.3697    3.2761    4.0075 N.ar    1  UNK1       -0.2598
     23 O4         -0.7312    4.6512    0.6954 O.co2   1  UNK1       -0.5479
     24 C14        -2.4782   -0.3144    4.1175 C.3     1  UNK1       -0.0236
     25 C15         0.9636    3.0818    4.0937 C.ar    1  UNK1        0.0434
     26 O5          0.9731    5.7217    1.7765 O.co2   1  UNK1       -0.5479
     27 C16         4.1538   -1.1341    3.5197 C.3     1  UNK1        0.0119
     28 C17        -5.3425   -3.7713    0.0077 C.3     1  UNK1        0.0161
     29 C18        -4.1034   -4.5999    2.0322 C.3     1  UNK1        0.0161
     30 C19         3.5687   -4.1470    2.8675 C.ar    1  UNK1       -0.0376
     31 C20         1.7001   -4.3328    0.7614 C.ar    1  UNK1       -0.0523
     32 C21        -1.4715   -1.3211    4.7262 C.3     1  UNK1       -0.0446
     33 C22        -1.1002    3.2182    5.1376 C.ar    1  UNK1        0.0279
     34 C23         1.5759    2.7815    5.3114 C.ar    1  UNK1       -0.0403
     35 C24        -1.4192   -1.1345    6.2485 C.3     1  UNK1       -0.0626
     36 C25        -0.0567   -1.1897    4.1708 C.3     1  UNK1       -0.0626
     37 C26        -6.0952   -5.1014    0.0528 C.3     1  UNK1       -0.0371
     38 C27        -5.2194   -4.8718    3.0424 C.3     1  UNK1       -0.0371
     39 C28         2.2225   -5.4860    1.3612 C.ar    1  UNK1       -0.0611
     40 C29         3.1437   -5.3918    2.3997 C.ar    1  UNK1       -0.0598
     41 C30        -0.5687    2.9256    6.3798 C.ar    1  UNK1       -0.0436
     42 C31         0.7977    2.6937    6.4641 C.ar    1  UNK1       -0.0586
     43 C32        -7.0413   -5.2769    1.2435 C.3     1  UNK1       -0.0516
     44 C33        -6.6415   -4.5941    2.5502 C.3     1  UNK1       -0.0516
     45 H           2.6973    0.1800    1.6238 H       1  UNK1        0.0812
     46 H          -3.5553   -2.4484    3.1480 H       1  UNK1        0.1510
     47 H          -1.0543   -1.5123    1.3703 H       1  UNK1        0.1495
     48 H          -0.6323    2.1853    1.3964 H       1  UNK1        0.1494
     49 H          -0.7806    0.0931   -0.7373 H       1  UNK1        0.0598
     50 H          -3.9388   -0.0021    2.5825 H       1  UNK1        0.0595
     51 H           1.9217    3.4206    0.7474 H       1  UNK1        0.0564
     52 H           1.4444   -0.9974   -1.1608 H       1  UNK1        0.0337
     53 H           0.2317   -2.1186   -0.5713 H       1  UNK1        0.0337
     54 H           2.4707    4.1127    3.0166 H       1  UNK1        0.0350
     55 H           2.4949    2.3670    2.8191 H       1  UNK1        0.0350
     56 H          -3.3798   -0.3521    4.7456 H       1  UNK1        0.0290
     57 H          -2.0838    0.7016    4.2281 H       1  UNK1        0.0290
     58 H           4.0447   -0.0470    3.5670 H       1  UNK1        0.0456
     59 H           5.1852   -1.3946    3.2704 H       1  UNK1        0.0456
     60 H           3.8642   -1.5685    4.4801 H       1  UNK1        0.0456
     61 H          -4.7358   -3.7355   -0.9056 H       1  UNK1        0.0465
     62 H          -6.0653   -2.9479   -0.0604 H       1  UNK1        0.0465
     63 H          -3.1719   -4.3924    2.5697 H       1  UNK1        0.0465
     64 H          -3.8846   -5.4917    1.4364 H       1  UNK1        0.0465
     65 H           4.2919   -4.0764    3.6733 H       1  UNK1        0.0638
     66 H           0.9899   -4.4210   -0.0548 H       1  UNK1        0.0624
     67 H          -1.8171   -2.3458    4.5474 H       1  UNK1        0.0296
     68 H          -2.1585    3.4187    5.0023 H       1  UNK1        0.0829
     69 H           2.6491    2.6347    5.3612 H       1  UNK1        0.0635
     70 H          -1.0591   -0.1363    6.5155 H       1  UNK1        0.0232
     71 H          -0.7486   -1.8698    6.7071 H       1  UNK1        0.0232
     72 H          -2.4098   -1.2728    6.6939 H       1  UNK1        0.0232
     73 H           0.2362   -0.1430    4.0434 H       1  UNK1        0.0232
     74 H           0.0218   -1.7015    3.2127 H       1  UNK1        0.0232
     75 H           0.6793   -1.6658    4.8283 H       1  UNK1        0.0232
     76 H          -5.3867   -5.9369    0.0265 H       1  UNK1        0.0280
     77 H          -6.6831   -5.2008   -0.8689 H       1  UNK1        0.0280
     78 H          -5.0514   -4.2418    3.9254 H       1  UNK1        0.0280
     79 H          -5.1396   -5.9086    3.3899 H       1  UNK1        0.0280
     80 H           1.9102   -6.4637    1.0047 H       1  UNK1        0.0618
     81 H           3.5452   -6.2957    2.8507 H       1  UNK1        0.0618
     82 H          -1.2036    2.8868    7.2557 H       1  UNK1        0.0633
     83 H           1.2590    2.4666    7.4192 H       1  UNK1        0.0619
     84 H          -7.1794   -6.3505    1.4215 H       1  UNK1        0.0266
     85 H          -8.0295   -4.8926    0.9586 H       1  UNK1        0.0266
     86 H          -6.7824   -3.5104    2.4457 H       1  UNK1        0.0266
     87 H          -7.3467   -4.9025    3.3325 H       1  UNK1        0.0266
@<TRIPOS>BOND
     1     2     4   ar
     2     3     9   am
     3     1     4   ar
     4     5    13    1
     5     1     6   ar
     6     7    11   am
     7     6     8   ar
     8     9    14    1
     9     3    10   am
    10    11    13    1
    11     5    12   am
    12    13    16    1
    13     7    14    1
    14    12    15    1
    15     1    16    1
    16    15    17    1
    17    15    18    1
    18     3    19    2
    19     7    20    2
    20     5    21    2
    21    22    25   ar
    22    17    23   ar
    23    14    24    1
    24    18    25    1
    25    17    26   ar
    26     2    27    1
    27    10    28    1
    28    10    29    1
    29     8    30   ar
    30     6    31   ar
    31    24    32    1
    32    22    33   ar
    33    25    34   ar
    34    32    35    1
    35    32    36    1
    36    28    37    1
    37    29    38    1
    38    31    39   ar
    39    39    40   ar
    40    41    42   ar
    41    34    42   ar
    42    37    43    1
    43    38    44    1
    44     2     8   ar
    45    30    40   ar
    46    33    41   ar
    47    43    44    1
    48     4    45    1
    49     9    46    1
    50    11    47    1
    51    12    48    1
    52    13    49    1
    53    14    50    1
    54    15    51    1
    55    16    52    1
    56    16    53    1
    57    18    54    1
    58    18    55    1
    59    24    56    1
    60    24    57    1
    61    27    58    1
    62    27    59    1
    63    27    60    1
    64    28    61    1
    65    28    62    1
    66    29    63    1
    67    29    64    1
    68    30    65    1
    69    31    66    1
    70    32    67    1
    71    33    68    1
    72    34    69    1
    73    35    70    1
    74    35    71    1
    75    35    72    1
    76    36    73    1
    77    36    74    1
    78    36    75    1
    79    37    76    1
    80    37    77    1
    81    38    78    1
    82    38    79    1
    83    39    80    1
    84    40    81    1
    85    41    82    1
    86    42    83    1
    87    43    84    1
    88    43    85    1
    89    44    86    1
    90    44    87    1
@<TRIPOS>MOLECULE
HTS1204-03362316-01
 87 90 0 0 0
SMALL
USER_CHARGES

@<TRIPOS>ATOM
      1 C1          1.8653   -1.7848   -1.0339 C.ar    1  UNK1       -0.0199
      2 N1          3.5300   -1.4256   -2.4714 N.ar    1  UNK1       -0.3494
      3 C2         -4.0004    1.7779   -0.8395 C.2     1  UNK1        0.3028
      4 C3          3.1046   -1.1983   -1.1923 C.ar    1  UNK1        0.0086
      5 C4          0.5751    0.7866    0.4105 C.2     1  UNK1        0.2342
      6 C5          1.5555   -2.4387   -2.2704 C.ar    1  UNK1        0.0031
      7 C6         -2.5843   -0.7769    0.6337 C.2     1  UNK1        0.2340
      8 C7          2.6026   -2.1786   -3.1594 C.ar    1  UNK1        0.0491
      9 N2         -4.2824    0.4650   -0.5645 N.am    1  UNK1       -0.2879
     10 N3         -5.0254    2.6642   -0.5276 N.am    1  UNK1       -0.2856
     11 N4         -1.2621   -0.9627    0.8460 N.am    1  UNK1       -0.3022
     12 N5          0.8134    1.1841    1.6856 N.am    1  UNK1       -0.3054
     13 C8         -0.0726   -0.5825    0.0675 C.3     1  UNK1        0.1034
     14 C9         -3.2980   -0.6117   -0.7291 C.3     1  UNK1        0.1011
     15 C10         0.3161    0.7501    3.0102 C.3     1  UNK1        0.0680
     16 C11         0.9963   -1.6914    0.1872 C.3     1  UNK1        0.0013
     17 C12         1.2492    1.1109    4.2106 C.2     1  UNK1        0.0623
     18 C13        -1.0850    1.3019    3.3197 C.3     1  UNK1        0.0133
     19 O1         -2.9586    2.1384   -1.3745 O.2     1  UNK1       -0.2526
     20 O2         -3.3033   -0.8504    1.6468 O.2     1  UNK1       -0.2738
     21 O3          1.0750    1.4643   -0.4987 O.2     1  UNK1       -0.2738
     22 N6         -1.1332    3.5471    2.3413 N.ar    1  UNK1       -0.2598
     23 O4          2.3636    1.6238    3.9004 O.co2   1  UNK1       -0.5479
     24 C14        -2.5403   -0.6416   -2.0557 C.3     1  UNK1       -0.0236
     25 C15        -1.1840    2.8021    3.4735 C.ar    1  UNK1        0.0434
     26 O5          0.8003    0.8027    5.3541 O.co2   1  UNK1       -0.5479
     27 C16         4.7600   -0.9100   -3.0266 C.3     1  UNK1        0.0119
     28 C17        -6.3635    2.2491   -0.0928 C.3     1  UNK1        0.0161
     29 C18        -4.7942    4.0781   -0.8023 C.3     1  UNK1        0.0161
     30 C19         2.5859   -2.6354   -4.4875 C.ar    1  UNK1       -0.0376
     31 C20         0.4598   -3.2026   -2.7247 C.ar    1  UNK1       -0.0523
     32 C21        -3.4293   -0.6672   -3.3192 C.3     1  UNK1       -0.0446
     33 C22        -1.2565    4.8837    2.4648 C.ar    1  UNK1        0.0279
     34 C23        -1.3936    3.3729    4.7259 C.ar    1  UNK1       -0.0403
     35 C24        -4.2662   -1.9435   -3.4184 C.3     1  UNK1       -0.0626
     36 C25        -2.5489   -0.5314   -4.5651 C.3     1  UNK1       -0.0626
     37 C26        -7.4760    3.2827   -0.2861 C.3     1  UNK1       -0.0371
     38 C27        -5.3291    4.4997   -2.1736 C.3     1  UNK1       -0.0371
     39 C28         0.4314   -3.6607   -4.0461 C.ar    1  UNK1       -0.0611
     40 C29         1.4797   -3.3757   -4.9150 C.ar    1  UNK1       -0.0598
     41 C30        -1.4784    5.5277    3.6693 C.ar    1  UNK1       -0.0436
     42 C31        -1.5533    4.7530    4.8200 C.ar    1  UNK1       -0.0586
     43 C32        -7.7470    3.6759   -1.7408 C.3     1  UNK1       -0.0516
     44 C33        -6.5421    3.7165   -2.6795 C.3     1  UNK1       -0.0516
     45 H           3.6828   -0.5925   -0.5041 H       1  UNK1        0.0812
     46 H          -4.8067    0.3624    0.2943 H       1  UNK1        0.1510
     47 H          -1.0924   -1.0821    1.8346 H       1  UNK1        0.1495
     48 H           1.3383    2.0528    1.7501 H       1  UNK1        0.1494
     49 H          -0.3740   -0.4948   -0.9702 H       1  UNK1        0.0598
     50 H          -3.9238   -1.5156   -0.7420 H       1  UNK1        0.0595
     51 H           0.2855   -0.3432    2.9924 H       1  UNK1        0.0564
     52 H           0.5107   -2.6667    0.3270 H       1  UNK1        0.0337
     53 H           1.6214   -1.5365    1.0757 H       1  UNK1        0.0337
     54 H          -1.4947    0.8132    4.2129 H       1  UNK1        0.0350
     55 H          -1.7722    1.0452    2.5104 H       1  UNK1        0.0350
     56 H          -1.9046   -1.5336   -2.0700 H       1  UNK1        0.0290
     57 H          -1.8705    0.2195   -2.1327 H       1  UNK1        0.0290
     58 H           5.3310   -0.3999   -2.2466 H       1  UNK1        0.0456
     59 H           4.5099   -0.2061   -3.8244 H       1  UNK1        0.0456
     60 H           5.3423   -1.7479   -3.4185 H       1  UNK1        0.0456
     61 H          -6.2818    2.0118    0.9747 H       1  UNK1        0.0465
     62 H          -6.6399    1.3242   -0.6119 H       1  UNK1        0.0465
     63 H          -3.7216    4.3039   -0.7580 H       1  UNK1        0.0465
     64 H          -5.2399    4.6743    0.0004 H       1  UNK1        0.0465
     65 H           3.3973   -2.4114   -5.1714 H       1  UNK1        0.0638
     66 H          -0.3660   -3.4238   -2.0561 H       1  UNK1        0.0624
     67 H          -4.1117    0.1909   -3.3038 H       1  UNK1        0.0296
     68 H          -1.1697    5.4372    1.5350 H       1  UNK1        0.0829
     69 H          -1.4223    2.7489    5.6150 H       1  UNK1        0.0635
     70 H          -3.6350   -2.8370   -3.3636 H       1  UNK1        0.0232
     71 H          -4.8148   -1.9755   -4.3658 H       1  UNK1        0.0232
     72 H          -5.0073   -1.9985   -2.6157 H       1  UNK1        0.0232
     73 H          -1.8420   -1.3637   -4.6453 H       1  UNK1        0.0232
     74 H          -1.9742    0.4005   -4.5351 H       1  UNK1        0.0232
     75 H          -3.1597   -0.5157   -5.4737 H       1  UNK1        0.0232
     76 H          -7.2643    4.1847    0.2991 H       1  UNK1        0.0280
     77 H          -8.4047    2.8816    0.1394 H       1  UNK1        0.0280
     78 H          -4.5271    4.3714   -2.9122 H       1  UNK1        0.0280
     79 H          -5.5545    5.5725   -2.1551 H       1  UNK1        0.0280
     80 H          -0.4227   -4.2338   -4.3961 H       1  UNK1        0.0618
     81 H           1.4379   -3.7283   -5.9424 H       1  UNK1        0.0618
     82 H          -1.5782    6.6047    3.7102 H       1  UNK1        0.0633
     83 H          -1.7186    5.2141    5.7878 H       1  UNK1        0.0619
     84 H          -8.2456    4.6530   -1.7489 H       1  UNK1        0.0266
     85 H          -8.4714    2.9669   -2.1621 H       1  UNK1        0.0266
     86 H          -6.2360    2.6886   -2.9141 H       1  UNK1        0.0266
     87 H          -6.8612    4.1473   -3.6370 H       1  UNK1        0.0266
@<TRIPOS>BOND
     1     2     4   ar
     2     3     9   am
     3     1     4   ar
     4     5    13    1
     5     1     6   ar
     6     7    11   am
     7     6     8   ar
     8     9    14    1
     9     3    10   am
    10    11    13    1
    11     5    12   am
    12    13    16    1
    13     7    14    1
    14    12    15    1
    15     1    16    1
    16    15    17    1
    17    15    18    1
    18     3    19    2
    19     7    20    2
    20     5    21    2
    21    22    25   ar
    22    17    23   ar
    23    14    24    1
    24    18    25    1
    25    17    26   ar
    26     2    27    1
    27    10    28    1
    28    10    29    1
    29     8    30   ar
    30     6    31   ar
    31    24    32    1
    32    22    33   ar
    33    25    34   ar
    34    32    35    1
    35    32    36    1
    36    28    37    1
    37    29    38    1
    38    31    39   ar
    39    39    40   ar
    40    41    42   ar
    41    34    42   ar
    42    37    43    1
    43    38    44    1
    44     2     8   ar
    45    30    40   ar
    46    33    41   ar
    47    43    44    1
    48     4    45    1
    49     9    46    1
    50    11    47    1
    51    12    48    1
    52    13    49    1
    53    14    50    1
    54    15    51    1
    55    16    52    1
    56    16    53    1
    57    18    54    1
    58    18    55    1
    59    24    56    1
    60    24    57    1
    61    27    58    1
    62    27    59    1
    63    27    60    1
    64    28    61    1
    65    28    62    1
    66    29    63    1
    67    29    64    1
    68    30    65    1
    69    31    66    1
    70    32    67    1
    71    33    68    1
    72    34    69    1
    73    35    70    1
    74    35    71    1
    75    35    72    1
    76    36    73    1
    77    36    74    1
    78    36    75    1
    79    37    76    1
    80    37    77    1
    81    38    78    1
    82    38    79    1
    83    39    80    1
    84    40    81    1
    85    41    82    1
    86    42    83    1
    87    43    84    1
    88    43    85    1
    89    44    86    1
    90    44    87    1
@<TRIPOS>MOLECULE
HTS1204-03362316-01
 87 90 0 0 0
SMALL
USER_CHARGES

@<TRIPOS>ATOM
      1 C1          1.5303   -1.7591   -1.1809 C.ar    1  UNK1       -0.0199
      2 N1          2.4495   -1.3064   -3.1657 N.ar    1  UNK1       -0.3494
      3 C2         -5.3769   -0.4152    2.9510 C.2     1  UNK1        0.3028
      4 C3          1.5719   -0.8483   -2.2188 C.ar    1  UNK1        0.0086
      5 C4          0.7550    0.8247    0.6355 C.2     1  UNK1        0.2342
      6 C5          2.4016   -2.8394   -1.5559 C.ar    1  UNK1        0.0031
      7 C6         -2.1432   -1.3455    1.5300 C.2     1  UNK1        0.2340
      8 C7          2.9651   -2.5288   -2.7951 C.ar    1  UNK1        0.0491
      9 N2         -4.0911   -0.3779    2.5064 N.am    1  UNK1       -0.2879
     10 N3         -6.2069    0.5630    2.4005 N.am    1  UNK1       -0.2856
     11 N4         -0.9321   -0.6916    1.5794 N.am    1  UNK1       -0.3022
     12 N5          0.1324    2.0454    0.7447 N.am    1  UNK1       -0.3054
     13 C8         -0.0979   -0.4520    0.3909 C.3     1  UNK1        0.1034
     14 C9         -2.9742   -1.2792    2.8399 C.3     1  UNK1        0.1011
     15 C10        -1.2979    2.3030    1.0311 C.3     1  UNK1        0.0680
     16 C11         0.7677   -1.6934    0.1171 C.3     1  UNK1        0.0013
     17 C12        -1.7674    2.0179    2.4910 C.2     1  UNK1        0.0623
     18 C13        -1.7272    3.7159    0.6166 C.3     1  UNK1        0.0133
     19 O1         -5.8101   -1.2435    3.7506 O.2     1  UNK1       -0.2526
     20 O2         -2.5456   -1.8930    0.5015 O.2     1  UNK1       -0.2738
     21 O3          1.9890    0.8088    0.6700 O.2     1  UNK1       -0.2738
     22 N6         -0.1326    4.6083    2.2755 N.ar    1  UNK1       -0.2598
     23 O4         -0.9581    1.3618    3.2154 O.co2   1  UNK1       -0.5479
     24 C14        -3.3287   -2.6946    3.3280 C.3     1  UNK1       -0.0236
     25 C15        -1.1198    4.8667    1.3893 C.ar    1  UNK1        0.0434
     26 O5         -2.9980    2.2362    2.7080 O.co2   1  UNK1       -0.5479
     27 C16         2.8048   -0.5938   -4.3711 C.3     1  UNK1        0.0119
     28 C17        -7.5547    0.6780    2.9584 C.3     1  UNK1        0.0161
     29 C18        -5.8508    1.4050    1.2538 C.3     1  UNK1        0.0161
     30 C19         3.8842   -3.3800   -3.4326 C.ar    1  UNK1       -0.0376
     31 C20         2.7677   -4.0521   -0.9330 C.ar    1  UNK1       -0.0523
     32 C21        -2.1287   -3.4690    3.9304 C.3     1  UNK1       -0.0446
     33 C22         0.3465    5.6376    3.0052 C.ar    1  UNK1        0.0279
     34 C23        -1.5803    6.1616    1.1571 C.ar    1  UNK1       -0.0403
     35 C24        -1.2451   -4.1323    2.8739 C.3     1  UNK1       -0.0626
     36 C25        -2.6372   -4.5439    4.8981 C.3     1  UNK1       -0.0626
     37 C26        -8.5446    1.5334    2.1648 C.3     1  UNK1       -0.0371
     38 C27        -6.4638    0.9088   -0.0581 C.3     1  UNK1       -0.0371
     39 C28         3.6788   -4.9088   -1.5592 C.ar    1  UNK1       -0.0611
     40 C29         4.2298   -4.5740   -2.7920 C.ar    1  UNK1       -0.0598
     41 C30        -0.0672    6.9482    2.8459 C.ar    1  UNK1       -0.0436
     42 C31        -1.0398    7.2144    1.8900 C.ar    1  UNK1       -0.0586
     43 C32        -8.9045    0.9820    0.7832 C.3     1  UNK1       -0.0516
     44 C33        -7.8123    0.2017    0.0569 C.3     1  UNK1       -0.0516
     45 H           1.0752    0.1055   -2.3393 H       1  UNK1        0.0812
     46 H          -3.7707    0.5958    2.4935 H       1  UNK1        0.1510
     47 H          -0.7465   -0.0951    2.4010 H       1  UNK1        0.1495
     48 H           0.7514    2.7428    1.1477 H       1  UNK1        0.1494
     49 H          -0.7570   -0.2640   -0.4650 H       1  UNK1        0.0598
     50 H          -2.4089   -0.7727    3.6292 H       1  UNK1        0.0595
     51 H          -1.8637    1.6046    0.4015 H       1  UNK1        0.0564
     52 H           0.1228   -2.5824    0.1405 H       1  UNK1        0.0337
     53 H           1.4840   -1.8205    0.9410 H       1  UNK1        0.0337
     54 H          -2.8197    3.7997    0.6981 H       1  UNK1        0.0350
     55 H          -1.4792    3.8623   -0.4428 H       1  UNK1        0.0350
     56 H          -3.8037   -3.2786    2.5302 H       1  UNK1        0.0290
     57 H          -4.0639   -2.6079    4.1320 H       1  UNK1        0.0290
     58 H           2.2552    0.3503   -4.4172 H       1  UNK1        0.0456
     59 H           2.5453   -1.2151   -5.2314 H       1  UNK1        0.0456
     60 H           3.8795   -0.3933   -4.3500 H       1  UNK1        0.0456
     61 H          -7.4360    1.1129    3.9583 H       1  UNK1        0.0465
     62 H          -7.9726   -0.3259    3.0994 H       1  UNK1        0.0465
     63 H          -4.7733    1.4560    1.0940 H       1  UNK1        0.0465
     64 H          -6.1520    2.4348    1.4711 H       1  UNK1        0.0465
     65 H           4.3213   -3.1234   -4.3914 H       1  UNK1        0.0638
     66 H           2.3445   -4.3156    0.0320 H       1  UNK1        0.0624
     67 H          -1.5099   -2.7750    4.5128 H       1  UNK1        0.0296
     68 H           1.0895    5.3651    3.7468 H       1  UNK1        0.0829
     69 H          -2.3592    6.3454    0.4246 H       1  UNK1        0.0635
     70 H          -1.8353   -4.7551    2.1937 H       1  UNK1        0.0232
     71 H          -0.4899   -4.7707    3.3448 H       1  UNK1        0.0232
     72 H          -0.7029   -3.3945    2.2822 H       1  UNK1        0.0232
     73 H          -3.2719   -5.2725    4.3844 H       1  UNK1        0.0232
     74 H          -3.2202   -4.0939    5.7092 H       1  UNK1        0.0232
     75 H          -1.8000   -5.0821    5.3571 H       1  UNK1        0.0232
     76 H          -8.1685    2.5578    2.0625 H       1  UNK1        0.0280
     77 H          -9.4705    1.6296    2.7461 H       1  UNK1        0.0280
     78 H          -5.7624    0.2005   -0.5191 H       1  UNK1        0.0280
     79 H          -6.5407    1.7530   -0.7535 H       1  UNK1        0.0280
     80 H           3.9580   -5.8393   -1.0724 H       1  UNK1        0.0618
     81 H           4.9411   -5.2478   -3.2624 H       1  UNK1        0.0618
     82 H           0.3541    7.7374    3.4555 H       1  UNK1        0.0633
     83 H          -1.3889    8.2293    1.7289 H       1  UNK1        0.0619
     84 H          -9.2423    1.8128    0.1518 H       1  UNK1        0.0266
     85 H          -9.7704    0.3161    0.8915 H       1  UNK1        0.0266
     86 H          -7.6707   -0.7678    0.5508 H       1  UNK1        0.0266
     87 H          -8.1671   -0.0371   -0.9538 H       1  UNK1        0.0266
@<TRIPOS>BOND
     1     2     4   ar
     2     3     9   am
     3     1     4   ar
     4     5    13    1
     5     1     6   ar
     6     7    11   am
     7     6     8   ar
     8     9    14    1
     9     3    10   am
    10    11    13    1
    11     5    12   am
    12    13    16    1
    13     7    14    1
    14    12    15    1
    15     1    16    1
    16    15    17    1
    17    15    18    1
    18     3    19    2
    19     7    20    2
    20     5    21    2
    21    22    25   ar
    22    17    23   ar
    23    14    24    1
    24    18    25    1
    25    17    26   ar
    26     2    27    1
    27    10    28    1
    28    10    29    1
    29     8    30   ar
    30     6    31   ar
    31    24    32    1
    32    22    33   ar
    33    25    34   ar
    34    32    35    1
    35    32    36    1
    36    28    37    1
    37    29    38    1
    38    31    39   ar
    39    39    40   ar
    40    41    42   ar
    41    34    42   ar
    42    37    43    1
    43    38    44    1
    44     2     8   ar
    45    30    40   ar
    46    33    41   ar
    47    43    44    1
    48     4    45    1
    49     9    46    1
    50    11    47    1
    51    12    48    1
    52    13    49    1
    53    14    50    1
    54    15    51    1
    55    16    52    1
    56    16    53    1
    57    18    54    1
    58    18    55    1
    59    24    56    1
    60    24    57    1
    61    27    58    1
    62    27    59    1
    63    27    60    1
    64    28    61    1
    65    28    62    1
    66    29    63    1
    67    29    64    1
    68    30    65    1
    69    31    66    1
    70    32    67    1
    71    33    68    1
    72    34    69    1
    73    35    70    1
    74    35    71    1
    75    35    72    1
    76    36    73    1
    77    36    74    1
    78    36    75    1
    79    37    76    1
    80    37    77    1
    81    38    78    1
    82    38    79    1
    83    39    80    1
    84    40    81    1
    85    41    82    1
    86    42    83    1
    87    43    84    1
    88    43    85    1
    89    44    86    1
    90    44    87    1
@<TRIPOS>MOLECULE
HTS1204-03362316-01
 87 90 0 0 0
SMALL
USER_CHARGES

@<TRIPOS>ATOM
      1 C1          1.6533   -1.9268    1.2645 C.ar    1  UNK1       -0.0199
      2 N1          3.0381   -1.7889    3.0197 N.ar    1  UNK1       -0.3494
      3 C2         -4.4475   -1.7880    2.8374 C.2     1  UNK1        0.3028
      4 C3          2.0510   -1.1460    2.3273 C.ar    1  UNK1        0.0086
      5 C4          0.6769    0.9576    0.0815 C.2     1  UNK1        0.2342
      6 C5          2.5232   -3.0769    1.2830 C.ar    1  UNK1        0.0031
      7 C6         -1.2192    0.0898    2.4577 C.2     1  UNK1        0.2340
      8 C7          3.3739   -2.9625    2.3873 C.ar    1  UNK1        0.0491
      9 N2         -3.1836   -1.3392    2.8674 N.am    1  UNK1       -0.2879
     10 N3         -5.5355   -1.0680    3.2551 N.am    1  UNK1       -0.2856
     11 N4         -1.3278   -0.2946    1.1402 N.am    1  UNK1       -0.3022
     12 N5         -0.0727    2.1203    0.1330 N.am    1  UNK1       -0.3054
     13 C8         -0.1843   -0.3277    0.2011 C.3     1  UNK1        0.1034
     14 C9         -2.4779   -0.1333    3.3278 C.3     1  UNK1        0.1011
     15 C10         0.5412    3.4373    0.4127 C.3     1  UNK1        0.0680
     16 C11         0.6294   -1.6397    0.2003 C.3     1  UNK1        0.0013
     17 C12         1.9125    3.8119   -0.2411 C.2     1  UNK1        0.0623
     18 C13        -0.3427    4.5855   -0.1062 C.3     1  UNK1        0.0133
     19 O1         -4.5745   -2.9295    2.3782 O.2     1  UNK1       -0.2526
     20 O2         -0.2684    0.7424    2.8731 O.2     1  UNK1       -0.2738
     21 O3          1.8632    0.9119   -0.2257 O.2     1  UNK1       -0.2738
     22 N6         -2.1762    3.9534    1.4632 N.ar    1  UNK1       -0.2598
     23 O4          1.9387    3.8674   -1.5085 O.co2   1  UNK1       -0.5479
     24 C14        -2.1096   -0.2871    4.8209 C.3     1  UNK1       -0.0236
     25 C15        -1.7702    4.6807    0.3940 C.ar    1  UNK1        0.0434
     26 O5          2.8050    4.1776    0.5855 O.co2   1  UNK1       -0.5479
     27 C16         3.6735   -1.2575    4.2031 C.3     1  UNK1        0.0119
     28 C17        -6.8387   -1.7065    2.9991 C.3     1  UNK1        0.0161
     29 C18        -5.5714    0.2512    3.8719 C.3     1  UNK1        0.0161
     30 C19         4.3698   -3.9102    2.6728 C.ar    1  UNK1       -0.0376
     31 C20         2.6881   -4.1870    0.4256 C.ar    1  UNK1       -0.0523
     32 C21        -1.5780    0.9678    5.5524 C.3     1  UNK1       -0.0446
     33 C22        -3.4476    4.1345    1.8825 C.ar    1  UNK1        0.0279
     34 C23        -2.6273    5.5683   -0.2637 C.ar    1  UNK1       -0.0403
     35 C24        -1.2738    0.6258    7.0141 C.3     1  UNK1       -0.0626
     36 C25        -2.5365    2.1539    5.4931 C.3     1  UNK1       -0.0626
     37 C26        -8.0967   -0.8936    3.3264 C.3     1  UNK1       -0.0371
     38 C27        -5.9160    1.3505    2.8724 C.3     1  UNK1       -0.0371
     39 C28         3.6887   -5.1299    0.6905 C.ar    1  UNK1       -0.0611
     40 C29         4.5158   -4.9918    1.8008 C.ar    1  UNK1       -0.0598
     41 C30        -4.3594    4.9839    1.2793 C.ar    1  UNK1       -0.0436
     42 C31        -3.9375    5.7137    0.1795 C.ar    1  UNK1       -0.0586
     43 C32        -8.2909    0.3992    2.5241 C.3     1  UNK1       -0.0516
     44 C33        -7.0429    1.0135    1.8970 C.3     1  UNK1       -0.0516
     45 H           1.7565   -0.1511    2.6260 H       1  UNK1        0.0812
     46 H          -2.5620   -2.0996    2.6139 H       1  UNK1        0.1510
     47 H          -2.1585   -0.8120    0.8808 H       1  UNK1        0.1495
     48 H          -0.9717    2.0178    0.5855 H       1  UNK1        0.1494
     49 H          -0.7085   -0.3456   -0.7682 H       1  UNK1        0.0598
     50 H          -3.1089    0.7330    3.1384 H       1  UNK1        0.0595
     51 H           0.6372    3.4935    1.5045 H       1  UNK1        0.0564
     52 H           1.1612   -1.6920   -0.7609 H       1  UNK1        0.0337
     53 H          -0.0806   -2.4786    0.1981 H       1  UNK1        0.0337
     54 H          -0.4127    4.5149   -1.2010 H       1  UNK1        0.0350
     55 H           0.1356    5.5477    0.1254 H       1  UNK1        0.0350
     56 H          -1.3523   -1.0793    4.9078 H       1  UNK1        0.0290
     57 H          -2.9836   -0.6612    5.3703 H       1  UNK1        0.0290
     58 H           3.1359   -0.3675    4.5414 H       1  UNK1        0.0456
     59 H           4.7061   -1.0000    3.9564 H       1  UNK1        0.0456
     60 H           3.6397   -2.0195    4.9863 H       1  UNK1        0.0456
     61 H          -6.8602   -2.6281    3.5952 H       1  UNK1        0.0465
     62 H          -6.8709   -2.0121    1.9454 H       1  UNK1        0.0465
     63 H          -4.6389    0.4774    4.3739 H       1  UNK1        0.0465
     64 H          -6.2904    0.2398    4.6970 H       1  UNK1        0.0465
     65 H           5.0303   -3.7935    3.5252 H       1  UNK1        0.0638
     66 H           2.0648   -4.2906   -0.4569 H       1  UNK1        0.0624
     67 H          -0.6302    1.2825    5.1058 H       1  UNK1        0.0296
     68 H          -3.7272    3.5592    2.7567 H       1  UNK1        0.0829
     69 H          -2.2683    6.1403   -1.1147 H       1  UNK1        0.0635
     70 H          -2.1797    0.3228    7.5495 H       1  UNK1        0.0232
     71 H          -0.8463    1.4905    7.5333 H       1  UNK1        0.0232
     72 H          -0.5481   -0.1918    7.0788 H       1  UNK1        0.0232
     73 H          -3.5117    1.9039    5.9221 H       1  UNK1        0.0232
     74 H          -2.6844    2.4869    4.4644 H       1  UNK1        0.0232
     75 H          -2.1336    3.0065    6.0507 H       1  UNK1        0.0232
     76 H          -8.1276   -0.6642    4.3983 H       1  UNK1        0.0280
     77 H          -8.9740   -1.5316    3.1575 H       1  UNK1        0.0280
     78 H          -5.0300    1.5823    2.2717 H       1  UNK1        0.0280
     79 H          -6.1654    2.2640    3.4254 H       1  UNK1        0.0280
     80 H           3.8301   -5.9659    0.0113 H       1  UNK1        0.0618
     81 H           5.2981   -5.7234    1.9851 H       1  UNK1        0.0618
     82 H          -5.3680    5.0786    1.6621 H       1  UNK1        0.0633
     83 H          -4.6114    6.3974   -0.3264 H       1  UNK1        0.0619
     84 H          -8.7803    1.1420    3.1666 H       1  UNK1        0.0266
     85 H          -9.0016    0.1948    1.7129 H       1  UNK1        0.0266
     86 H          -6.6600    0.3382    1.1213 H       1  UNK1        0.0266
     87 H          -7.3287    1.9316    1.3682 H       1  UNK1        0.0266
@<TRIPOS>BOND
     1     2     4   ar
     2     3     9   am
     3     1     4   ar
     4     5    13    1
     5     1     6   ar
     6     7    11   am
     7     6     8   ar
     8     9    14    1
     9     3    10   am
    10    11    13    1
    11     5    12   am
    12    13    16    1
    13     7    14    1
    14    12    15    1
    15     1    16    1
    16    15    17    1
    17    15    18    1
    18     3    19    2
    19     7    20    2
    20     5    21    2
    21    22    25   ar
    22    17    23   ar
    23    14    24    1
    24    18    25    1
    25    17    26   ar
    26     2    27    1
    27    10    28    1
    28    10    29    1
    29     8    30   ar
    30     6    31   ar
    31    24    32    1
    32    22    33   ar
    33    25    34   ar
    34    32    35    1
    35    32    36    1
    36    28    37    1
    37    29    38    1
    38    31    39   ar
    39    39    40   ar
    40    41    42   ar
    41    34    42   ar
    42    37    43    1
    43    38    44    1
    44     2     8   ar
    45    30    40   ar
    46    33    41   ar
    47    43    44    1
    48     4    45    1
    49     9    46    1
    50    11    47    1
    51    12    48    1
    52    13    49    1
    53    14    50    1
    54    15    51    1
    55    16    52    1
    56    16    53    1
    57    18    54    1
    58    18    55    1
    59    24    56    1
    60    24    57    1
    61    27    58    1
    62    27    59    1
    63    27    60    1
    64    28    61    1
    65    28    62    1
    66    29    63    1
    67    29    64    1
    68    30    65    1
    69    31    66    1
    70    32    67    1
    71    33    68    1
    72    34    69    1
    73    35    70    1
    74    35    71    1
    75    35    72    1
    76    36    73    1
    77    36    74    1
    78    36    75    1
    79    37    76    1
    80    37    77    1
    81    38    78    1
    82    38    79    1
    83    39    80    1
    84    40    81    1
    85    41    82    1
    86    42    83    1
    87    43    84    1
    88    43    85    1
    89    44    86    1
    90    44    87    1
@<TRIPOS>MOLECULE
HTS1204-03362316-01
 87 90 0 0 0
SMALL
USER_CHARGES

@<TRIPOS>ATOM
      1 C1          0.0709   -2.7225   -0.1084 C.ar    1  UNK1       -0.0199
      2 N1         -0.5195   -4.8506    0.2259 N.ar    1  UNK1       -0.3494
      3 C2         -3.1196    1.9253    3.4585 C.2     1  UNK1        0.3028
      4 C3          0.1112   -3.7753    0.7880 C.ar    1  UNK1        0.0086
      5 C4          0.5747    1.0896    0.3351 C.2     1  UNK1        0.2342
      6 C5         -0.6231   -3.2001   -1.2685 C.ar    1  UNK1        0.0031
      7 C6         -2.5463    0.0129    1.2481 C.2     1  UNK1        0.2340
      8 C7         -0.9875   -4.5297   -1.0289 C.ar    1  UNK1        0.0491
      9 N2         -3.9247    0.8569    3.1643 N.am    1  UNK1       -0.2879
     10 N3         -3.7112    2.9482    4.1831 N.am    1  UNK1       -0.2856
     11 N4         -1.2194   -0.3750    1.3225 N.am    1  UNK1       -0.3022
     12 N5          0.7073    1.6127    1.6052 N.am    1  UNK1       -0.3054
     13 C8         -0.2932   -0.1849    0.2092 C.3     1  UNK1        0.1034
     14 C9         -3.3348   -0.3295    2.5360 C.3     1  UNK1        0.1011
     15 C10         1.6933    2.6722    1.9274 C.3     1  UNK1        0.0680
     16 C11         0.6949   -1.3667    0.0978 C.3     1  UNK1        0.0013
     17 C12         1.1937    3.7412    2.9496 C.2     1  UNK1        0.0623
     18 C13         2.9358    2.1129    2.6522 C.3     1  UNK1        0.0133
     19 O1         -1.9562    1.9506    3.0632 O.2     1  UNK1       -0.2526
     20 O2         -3.0607    0.5258    0.2577 O.2     1  UNK1       -0.2738
     21 O3          1.2531    1.4680   -0.6238 O.2     1  UNK1       -0.2738
     22 N6          4.3986    0.1575    2.6211 N.ar    1  UNK1       -0.2598
     23 O4          0.7056    3.2901    4.0281 O.co2   1  UNK1       -0.5479
     24 C14        -4.4698   -1.3276    2.2288 C.3     1  UNK1       -0.0236
     25 C15         3.8384    1.1639    1.8937 C.ar    1  UNK1        0.0434
     26 O5          1.3644    4.9442    2.5973 O.co2   1  UNK1       -0.5479
     27 C16        -0.6578   -6.1451    0.8532 C.3     1  UNK1        0.0119
     28 C17        -2.8574    4.1173    4.4562 C.3     1  UNK1        0.0161
     29 C18        -5.0437    2.9131    4.7804 C.3     1  UNK1        0.0161
     30 C19        -1.6980   -5.2939   -1.9698 C.ar    1  UNK1       -0.0376
     31 C20        -0.9794   -2.6200   -2.5043 C.ar    1  UNK1       -0.0523
     32 C21        -4.0499   -2.6481    1.5475 C.3     1  UNK1       -0.0446
     33 C22         5.2692   -0.6647    1.9988 C.ar    1  UNK1        0.0279
     34 C23         4.1690    1.3625    0.5565 C.ar    1  UNK1       -0.0403
     35 C24        -4.0308   -2.5372    0.0194 C.3     1  UNK1       -0.0626
     36 C25        -5.0340   -3.7589    1.9303 C.3     1  UNK1       -0.0626
     37 C26        -3.4266    5.1505    5.4351 C.3     1  UNK1       -0.0371
     38 C27        -4.9917    2.5371    6.2620 C.3     1  UNK1       -0.0371
     39 C28        -1.6948   -3.3700   -3.4451 C.ar    1  UNK1       -0.0611
     40 C29        -2.0490   -4.6887   -3.1792 C.ar    1  UNK1       -0.0598
     41 C30         5.6272   -0.5444    0.6694 C.ar    1  UNK1       -0.0436
     42 C31         5.0614    0.4892   -0.0635 C.ar    1  UNK1       -0.0586
     43 C32        -3.6300    4.6514    6.8712 C.3     1  UNK1       -0.0516
     44 C33        -3.8326    3.1481    7.0530 C.3     1  UNK1       -0.0516
     45 H           0.5556   -3.8358    1.7731 H       1  UNK1        0.0812
     46 H          -4.5893    0.6551    3.8884 H       1  UNK1        0.1510
     47 H          -0.7996   -0.3911    2.2448 H       1  UNK1        0.1495
     48 H          -0.1083    1.6125    2.2242 H       1  UNK1        0.1494
     49 H          -0.8752   -0.0858   -0.7139 H       1  UNK1        0.0598
     50 H          -2.6574   -0.7731    3.2766 H       1  UNK1        0.0595
     51 H           1.9743    3.1831    1.0002 H       1  UNK1        0.0564
     52 H           1.3193   -1.4028    1.0019 H       1  UNK1        0.0337
     53 H           1.3906   -1.1911   -0.7341 H       1  UNK1        0.0337
     54 H           2.6165    1.5916    3.5657 H       1  UNK1        0.0350
     55 H           3.5762    2.9436    2.9808 H       1  UNK1        0.0350
     56 H          -5.2442   -0.8329    1.6268 H       1  UNK1        0.0290
     57 H          -4.9521   -1.5621    3.1883 H       1  UNK1        0.0290
     58 H          -0.1413   -6.1448    1.8164 H       1  UNK1        0.0456
     59 H          -0.2111   -6.8984    0.1986 H       1  UNK1        0.0456
     60 H          -1.7219   -6.3455    1.0024 H       1  UNK1        0.0456
     61 H          -2.6835    4.6067    3.4894 H       1  UNK1        0.0465
     62 H          -1.8853    3.7651    4.8178 H       1  UNK1        0.0465
     63 H          -5.6937    2.2069    4.2562 H       1  UNK1        0.0465
     64 H          -5.5307    3.8821    4.6355 H       1  UNK1        0.0465
     65 H          -1.9784   -6.3225   -1.7682 H       1  UNK1        0.0638
     66 H          -0.7156   -1.5889   -2.7221 H       1  UNK1        0.0624
     67 H          -3.0548   -2.9465    1.8988 H       1  UNK1        0.0296
     68 H           5.6879   -1.4463    2.6245 H       1  UNK1        0.0829
     69 H           3.7336    2.1790   -0.0112 H       1  UNK1        0.0635
     70 H          -4.9585   -2.0970   -0.3620 H       1  UNK1        0.0232
     71 H          -3.9176   -3.5228   -0.4431 H       1  UNK1        0.0232
     72 H          -3.1998   -1.9271   -0.3350 H       1  UNK1        0.0232
     73 H          -6.0519   -3.5127    1.6083 H       1  UNK1        0.0232
     74 H          -5.0460   -3.9137    3.0140 H       1  UNK1        0.0232
     75 H          -4.7503   -4.7082    1.4633 H       1  UNK1        0.0232
     76 H          -4.3730    5.5532    5.0543 H       1  UNK1        0.0280
     77 H          -2.7516    6.0153    5.4665 H       1  UNK1        0.0280
     78 H          -4.9100    1.4457    6.3482 H       1  UNK1        0.0280
     79 H          -5.9442    2.8108    6.7311 H       1  UNK1        0.0280
     80 H          -1.9794   -2.9106   -4.3881 H       1  UNK1        0.0618
     81 H          -2.6082   -5.2547   -3.9200 H       1  UNK1        0.0618
     82 H           6.3295   -1.2341    0.2186 H       1  UNK1        0.0633
     83 H           5.3087    0.6246   -1.1117 H       1  UNK1        0.0619
     84 H          -4.4750    5.1910    7.3169 H       1  UNK1        0.0266
     85 H          -2.7494    4.9396    7.4600 H       1  UNK1        0.0266
     86 H          -2.9022    2.6268    6.7934 H       1  UNK1        0.0266
     87 H          -3.9912    2.9416    8.1189 H       1  UNK1        0.0266
@<TRIPOS>BOND
     1     2     4   ar
     2     3     9   am
     3     1     4   ar
     4     5    13    1
     5     1     6   ar
     6     7    11   am
     7     6     8   ar
     8     9    14    1
     9     3    10   am
    10    11    13    1
    11     5    12   am
    12    13    16    1
    13     7    14    1
    14    12    15    1
    15     1    16    1
    16    15    17    1
    17    15    18    1
    18     3    19    2
    19     7    20    2
    20     5    21    2
    21    22    25   ar
    22    17    23   ar
    23    14    24    1
    24    18    25    1
    25    17    26   ar
    26     2    27    1
    27    10    28    1
    28    10    29    1
    29     8    30   ar
    30     6    31   ar
    31    24    32    1
    32    22    33   ar
    33    25    34   ar
    34    32    35    1
    35    32    36    1
    36    28    37    1
    37    29    38    1
    38    31    39   ar
    39    39    40   ar
    40    41    42   ar
    41    34    42   ar
    42    37    43    1
    43    38    44    1
    44     2     8   ar
    45    30    40   ar
    46    33    41   ar
    47    43    44    1
    48     4    45    1
    49     9    46    1
    50    11    47    1
    51    12    48    1
    52    13    49    1
    53    14    50    1
    54    15    51    1
    55    16    52    1
    56    16    53    1
    57    18    54    1
    58    18    55    1
    59    24    56    1
    60    24    57    1
    61    27    58    1
    62    27    59    1
    63    27    60    1
    64    28    61    1
    65    28    62    1
    66    29    63    1
    67    29    64    1
    68    30    65    1
    69    31    66    1
    70    32    67    1
    71    33    68    1
    72    34    69    1
    73    35    70    1
    74    35    71    1
    75    35    72    1
    76    36    73    1
    77    36    74    1
    78    36    75    1
    79    37    76    1
    80    37    77    1
    81    38    78    1
    82    38    79    1
    83    39    80    1
    84    40    81    1
    85    41    82    1
    86    42    83    1
    87    43    84    1
    88    43    85    1
    89    44    86    1
    90    44    87    1
@<TRIPOS>MOLECULE
HTS1204-03362316-01
 87 90 0 0 0
SMALL
USER_CHARGES

@<TRIPOS>ATOM
      1 C1          1.6525   -1.4968   -0.8143 C.ar    1  UNK1       -0.0199
      2 N1          2.5593   -1.1096   -2.8218 N.ar    1  UNK1       -0.3494
      3 C2         -3.6160   -4.2396   -0.1016 C.2     1  UNK1        0.3028
      4 C3          1.7990   -0.5645   -1.8222 C.ar    1  UNK1        0.0086
      5 C4          0.0613    1.1671    0.6553 C.2     1  UNK1        0.2342
      6 C5          2.3819   -2.6613   -1.2343 C.ar    1  UNK1        0.0031
      7 C6         -2.4782   -1.2077    1.3735 C.2     1  UNK1        0.2340
      8 C7          2.9288   -2.3949   -2.4934 C.ar    1  UNK1        0.0491
      9 N2         -3.7299   -2.9298    0.1741 N.am    1  UNK1       -0.2879
     10 N3         -2.6291   -4.7635   -0.8995 N.am    1  UNK1       -0.2856
     11 N4         -1.2364   -0.6571    1.5078 N.am    1  UNK1       -0.3022
     12 N5          1.2991    1.4926    1.1678 N.am    1  UNK1       -0.3054
     13 C8         -0.2467   -0.3322    0.4580 C.3     1  UNK1        0.1034
     14 C9         -2.9233   -1.7258   -0.0057 C.3     1  UNK1        0.1011
     15 C10         1.7541    2.9237    1.2120 C.3     1  UNK1        0.0680
     16 C11         0.9188   -1.3312    0.4885 C.3     1  UNK1        0.0013
     17 C12         2.1966    3.3763   -0.2214 C.2     1  UNK1        0.0623
     18 C13         0.7591    3.8394    1.9355 C.3     1  UNK1        0.0133
     19 O1         -4.4805   -4.9559    0.4141 O.2     1  UNK1       -0.2526
     20 O2         -3.2081   -1.2887    2.3644 O.2     1  UNK1       -0.2738
     21 O3         -0.8541    1.9835    0.5208 O.2     1  UNK1       -0.2738
     22 N6          2.6109    5.3998    2.4684 N.ar    1  UNK1       -0.2598
     23 O4          1.7270    4.4457   -0.6898 O.co2   1  UNK1       -0.5479
     24 C14        -3.6376   -0.6574   -0.8536 C.3     1  UNK1       -0.0236
     25 C15         1.3662    4.9578    2.7599 C.ar    1  UNK1        0.0434
     26 O5          2.9434    2.5134   -0.7948 O.co2   1  UNK1       -0.5479
     27 C16         2.9413   -0.4106   -4.0288 C.3     1  UNK1        0.0119
     28 C17        -1.5985   -4.0174   -1.6316 C.3     1  UNK1        0.0161
     29 C18        -2.6368   -6.2162   -1.0818 C.3     1  UNK1        0.0161
     30 C19         3.7123   -3.3333   -3.1846 C.ar    1  UNK1       -0.0376
     31 C20         2.6384   -3.9180   -0.6441 C.ar    1  UNK1       -0.0523
     32 C21        -4.8609    0.0724   -0.2508 C.3     1  UNK1       -0.0446
     33 C22         3.0802    6.4612    3.1553 C.ar    1  UNK1        0.0279
     34 C23         0.5986    5.5428    3.7696 C.ar    1  UNK1       -0.0403
     35 C24        -6.0667   -0.8344   -0.0038 C.3     1  UNK1       -0.0626
     36 C25        -5.2836    1.2040   -1.1993 C.3     1  UNK1       -0.0626
     37 C26        -0.7513   -4.7981   -2.6403 C.3     1  UNK1       -0.0371
     38 C27        -3.2389   -6.6461   -2.4212 C.3     1  UNK1       -0.0371
     39 C28         3.4236   -4.8586   -1.3209 C.ar    1  UNK1       -0.0611
     40 C29         3.9510   -4.5681   -2.5750 C.ar    1  UNK1       -0.0598
     41 C30         2.3825    7.0944    4.1687 C.ar    1  UNK1       -0.0436
     42 C31         1.1196    6.6156    4.4883 C.ar    1  UNK1       -0.0586
     43 C32        -1.5228   -5.3385   -3.8437 C.3     1  UNK1       -0.0516
     44 C33        -2.9834   -5.7077   -3.6002 C.3     1  UNK1       -0.0516
     45 H           1.4618    0.4647   -1.8996 H       1  UNK1        0.0812
     46 H          -4.4293   -2.8232    0.8993 H       1  UNK1        0.1510
     47 H          -1.0617   -0.2727    2.4296 H       1  UNK1        0.1495
     48 H           2.0584    0.9410    0.7769 H       1  UNK1        0.1494
     49 H          -0.7344   -0.3894   -0.5196 H       1  UNK1        0.0598
     50 H          -2.0203   -1.9965   -0.5283 H       1  UNK1        0.0595
     51 H           2.6781    2.8661    1.8031 H       1  UNK1        0.0564
     52 H           0.5125   -2.3177    0.7528 H       1  UNK1        0.0337
     53 H           1.6377   -1.0915    1.2803 H       1  UNK1        0.0337
     54 H           0.1678    3.2297    2.6326 H       1  UNK1        0.0350
     55 H           0.0526    4.2931    1.2304 H       1  UNK1        0.0350
     56 H          -3.9351   -1.1145   -1.8073 H       1  UNK1        0.0290
     57 H          -2.8970    0.1122   -1.1073 H       1  UNK1        0.0290
     58 H           2.4502    0.5647   -4.0631 H       1  UNK1        0.0456
     59 H           2.6251   -1.0080   -4.8882 H       1  UNK1        0.0456
     60 H           4.0269   -0.2841   -4.0271 H       1  UNK1        0.0456
     61 H          -0.9122   -3.6250   -0.8743 H       1  UNK1        0.0465
     62 H          -2.0828   -3.1881   -2.1571 H       1  UNK1        0.0465
     63 H          -3.1988   -6.7097   -0.2800 H       1  UNK1        0.0465
     64 H          -1.6165   -6.5936   -0.9626 H       1  UNK1        0.0465
     65 H           4.1388   -3.1065   -4.1562 H       1  UNK1        0.0638
     66 H           2.2420   -4.1518    0.3395 H       1  UNK1        0.0624
     67 H          -4.5741    0.5357    0.7004 H       1  UNK1        0.0296
     68 H           4.0640    6.8013    2.8493 H       1  UNK1        0.0829
     69 H          -0.3986    5.1715    3.9839 H       1  UNK1        0.0635
     70 H          -6.2689   -1.4768   -0.8673 H       1  UNK1        0.0232
     71 H          -6.9689   -0.2439    0.1922 H       1  UNK1        0.0232
     72 H          -5.9180   -1.4648    0.8754 H       1  UNK1        0.0232
     73 H          -5.5937    0.8097   -2.1734 H       1  UNK1        0.0232
     74 H          -4.4595    1.9062   -1.3628 H       1  UNK1        0.0232
     75 H          -6.1227    1.7714   -0.7819 H       1  UNK1        0.0232
     76 H          -0.2193   -5.6173   -2.1433 H       1  UNK1        0.0280
     77 H           0.0405   -4.1369   -3.0146 H       1  UNK1        0.0280
     78 H          -4.3268   -6.7333   -2.3020 H       1  UNK1        0.0280
     79 H          -2.8775   -7.6530   -2.6625 H       1  UNK1        0.0280
     80 H           3.6305   -5.8184   -0.8559 H       1  UNK1        0.0618
     81 H           4.5678   -5.3051   -3.0843 H       1  UNK1        0.0618
     82 H           2.8101    7.9440    4.6861 H       1  UNK1        0.0633
     83 H           0.5352    7.0811    5.2746 H       1  UNK1        0.0619
     84 H          -0.9850   -6.2066   -4.2440 H       1  UNK1        0.0266
     85 H          -1.5003   -4.5801   -4.6368 H       1  UNK1        0.0266
     86 H          -3.5693   -4.7895   -3.4638 H       1  UNK1        0.0266
     87 H          -3.3819   -6.1731   -4.5101 H       1  UNK1        0.0266
@<TRIPOS>BOND
     1     2     4   ar
     2     3     9   am
     3     1     4   ar
     4     5    13    1
     5     1     6   ar
     6     7    11   am
     7     6     8   ar
     8     9    14    1
     9     3    10   am
    10    11    13    1
    11     5    12   am
    12    13    16    1
    13     7    14    1
    14    12    15    1
    15     1    16    1
    16    15    17    1
    17    15    18    1
    18     3    19    2
    19     7    20    2
    20     5    21    2
    21    22    25   ar
    22    17    23   ar
    23    14    24    1
    24    18    25    1
    25    17    26   ar
    26     2    27    1
    27    10    28    1
    28    10    29    1
    29     8    30   ar
    30     6    31   ar
    31    24    32    1
    32    22    33   ar
    33    25    34   ar
    34    32    35    1
    35    32    36    1
    36    28    37    1
    37    29    38    1
    38    31    39   ar
    39    39    40   ar
    40    41    42   ar
    41    34    42   ar
    42    37    43    1
    43    38    44    1
    44     2     8   ar
    45    30    40   ar
    46    33    41   ar
    47    43    44    1
    48     4    45    1
    49     9    46    1
    50    11    47    1
    51    12    48    1
    52    13    49    1
    53    14    50    1
    54    15    51    1
    55    16    52    1
    56    16    53    1
    57    18    54    1
    58    18    55    1
    59    24    56    1
    60    24    57    1
    61    27    58    1
    62    27    59    1
    63    27    60    1
    64    28    61    1
    65    28    62    1
    66    29    63    1
    67    29    64    1
    68    30    65    1
    69    31    66    1
    70    32    67    1
    71    33    68    1
    72    34    69    1
    73    35    70    1
    74    35    71    1
    75    35    72    1
    76    36    73    1
    77    36    74    1
    78    36    75    1
    79    37    76    1
    80    37    77    1
    81    38    78    1
    82    38    79    1
    83    39    80    1
    84    40    81    1
    85    41    82    1
    86    42    83    1
    87    43    84    1
    88    43    85    1
    89    44    86    1
    90    44    87    1
@<TRIPOS>MOLECULE
HTS1204-03362316-01
 87 90 0 0 0
SMALL
USER_CHARGES

@<TRIPOS>ATOM
      1 C1         -0.0590   -3.4170   -0.0945 C.ar    1  UNK1       -0.0199
      2 N1         -1.1952   -5.0768   -1.0594 N.ar    1  UNK1       -0.3494
      3 C2         -1.9598   -2.0320    5.1777 C.2     1  UNK1        0.3028
      4 C3         -0.5014   -3.9232   -1.3027 C.ar    1  UNK1        0.0086
      5 C4          0.6392    0.4449   -0.1366 C.2     1  UNK1        0.2342
      6 C5         -0.5014   -4.3261    0.9200 C.ar    1  UNK1        0.0031
      7 C6         -0.9555   -0.7859    2.3681 C.2     1  UNK1        0.2340
      8 C7         -1.2314   -5.3402    0.2926 C.ar    1  UNK1        0.0491
      9 N2         -2.5694   -1.6927    3.9935 N.am    1  UNK1       -0.2879
     10 N3         -2.3774   -3.2598    5.6900 N.am    1  UNK1       -0.2856
     11 N4         -1.1851   -0.7146    1.0056 N.am    1  UNK1       -0.3022
     12 N5          1.9113    0.4928    0.3587 N.am    1  UNK1       -0.3054
     13 C8         -0.1227   -0.8857    0.0068 C.3     1  UNK1        0.1034
     14 C9         -2.2108   -0.4921    3.2204 C.3     1  UNK1        0.1011
     15 C10         2.7421    1.7156    0.3828 C.3     1  UNK1        0.0680
     16 C11         0.7402   -2.1546    0.1017 C.3     1  UNK1        0.0013
     17 C12         3.6951    1.7608    1.6144 C.2     1  UNK1        0.0623
     18 C13         3.7350    1.7781   -0.7903 C.3     1  UNK1        0.0133
     19 O1         -1.1437   -1.3296    5.7604 O.2     1  UNK1       -0.2526
     20 O2          0.1170   -1.1350    2.8440 O.2     1  UNK1       -0.2738
     21 O3          0.0543    1.4295   -0.6009 O.2     1  UNK1       -0.2738
     22 N6          3.6757    1.1955   -3.1661 N.ar    1  UNK1       -0.2598
     23 O4          3.9145    0.6303    2.1459 O.co2   1  UNK1       -0.5479
     24 C14        -2.1120    0.7996    4.0499 C.3     1  UNK1       -0.0236
     25 C15         3.1426    1.9547   -2.1705 C.ar    1  UNK1        0.0434
     26 O5          4.1225    2.9058    1.9344 O.co2   1  UNK1       -0.5479
     27 C16        -1.7875   -5.9095   -2.0809 C.3     1  UNK1        0.0119
     28 C17        -3.6763   -3.8543    5.3574 C.3     1  UNK1        0.0161
     29 C18        -1.6092   -3.8180    6.7967 C.3     1  UNK1        0.0161
     30 C19        -1.8289   -6.3872    1.0147 C.ar    1  UNK1       -0.0376
     31 C20        -0.3449   -4.3798    2.3205 C.ar    1  UNK1       -0.0523
     32 C21        -2.1599    2.0945    3.2079 C.3     1  UNK1       -0.0446
     33 C22         3.2072    1.3828   -4.4176 C.ar    1  UNK1        0.0279
     34 C23         2.1682    2.9163   -2.4267 C.ar    1  UNK1       -0.0403
     35 C24        -0.7645    2.5372    2.7627 C.3     1  UNK1       -0.0626
     36 C25        -2.7982    3.2269    4.0186 C.3     1  UNK1       -0.0626
     37 C26        -4.2203   -4.8682    6.3676 C.3     1  UNK1       -0.0371
     38 C27        -2.1335   -3.4080    8.1717 C.3     1  UNK1       -0.0371
     39 C28        -0.9299   -5.4199    3.0484 C.ar    1  UNK1       -0.0611
     40 C29        -1.6676   -6.4059    2.4033 C.ar    1  UNK1       -0.0598
     41 C30         2.2265    2.3009   -4.7463 C.ar    1  UNK1       -0.0436
     42 C31         1.6978    3.0803   -3.7274 C.ar    1  UNK1       -0.0586
     43 C32        -4.5239   -4.3084    7.7614 C.3     1  UNK1       -0.0516
     44 C33        -3.6392   -3.1669    8.2583 C.3     1  UNK1       -0.0516
     45 H          -0.3668   -3.5483   -2.3093 H       1  UNK1        0.0812
     46 H          -2.7207   -2.5075    3.4161 H       1  UNK1        0.1510
     47 H          -1.9369   -0.1073    0.7056 H       1  UNK1        0.1495
     48 H           2.2178   -0.1756    1.0691 H       1  UNK1        0.1494
     49 H          -0.6730   -0.9654   -0.9431 H       1  UNK1        0.0598
     50 H          -3.0627   -0.3814    2.5368 H       1  UNK1        0.0595
     51 H           2.0831    2.5893    0.4191 H       1  UNK1        0.0564
     52 H           1.2894   -2.2088    1.0462 H       1  UNK1        0.0337
     53 H           1.5117   -2.1195   -0.6800 H       1  UNK1        0.0337
     54 H           4.3427    0.8620   -0.7962 H       1  UNK1        0.0350
     55 H           4.4404    2.6090   -0.6536 H       1  UNK1        0.0350
     56 H          -1.1997    0.8068    4.6568 H       1  UNK1        0.0290
     57 H          -2.9548    0.8020    4.7542 H       1  UNK1        0.0290
     58 H          -1.5665   -5.4949   -3.0678 H       1  UNK1        0.0456
     59 H          -2.8686   -5.9343   -1.9228 H       1  UNK1        0.0456
     60 H          -1.3612   -6.9130   -2.0006 H       1  UNK1        0.0456
     61 H          -3.5573   -4.3534    4.3892 H       1  UNK1        0.0465
     62 H          -4.4076   -3.0490    5.2183 H       1  UNK1        0.0465
     63 H          -0.5614   -3.5037    6.7102 H       1  UNK1        0.0465
     64 H          -1.5855   -4.9076    6.6918 H       1  UNK1        0.0465
     65 H          -2.3925   -7.1681    0.5161 H       1  UNK1        0.0638
     66 H           0.2381   -3.6209    2.8383 H       1  UNK1        0.0624
     67 H          -2.7796    1.9329    2.3173 H       1  UNK1        0.0296
     68 H           3.6627    0.7530   -5.1750 H       1  UNK1        0.0829
     69 H           1.7634    3.5245   -1.6240 H       1  UNK1        0.0635
     70 H          -0.1253    2.7625    3.6232 H       1  UNK1        0.0232
     71 H          -0.8236    3.4386    2.1433 H       1  UNK1        0.0232
     72 H          -0.2652    1.7689    2.1737 H       1  UNK1        0.0232
     73 H          -2.2321    3.4277    4.9346 H       1  UNK1        0.0232
     74 H          -3.8248    2.9718    4.3020 H       1  UNK1        0.0232
     75 H          -2.8362    4.1517    3.4330 H       1  UNK1        0.0232
     76 H          -3.5308   -5.7152    6.4607 H       1  UNK1        0.0280
     77 H          -5.1460   -5.3000    5.9660 H       1  UNK1        0.0280
     78 H          -1.6326   -2.4790    8.4736 H       1  UNK1        0.0280
     79 H          -1.8313   -4.1648    8.9058 H       1  UNK1        0.0280
     80 H          -0.7958   -5.4492    4.1264 H       1  UNK1        0.0618
     81 H          -2.1127   -7.2085    2.9851 H       1  UNK1        0.0618
     82 H           1.8857    2.4071   -5.7683 H       1  UNK1        0.0633
     83 H           0.9235    3.8123   -3.9332 H       1  UNK1        0.0619
     84 H          -4.4880   -5.1346    8.4825 H       1  UNK1        0.0266
     85 H          -5.5611   -3.9492    7.7715 H       1  UNK1        0.0266
     86 H          -3.8903   -2.2512    7.7081 H       1  UNK1        0.0266
     87 H          -3.8967   -2.9567    9.3042 H       1  UNK1        0.0266
@<TRIPOS>BOND
     1     2     4   ar
     2     3     9   am
     3     1     4   ar
     4     5    13    1
     5     1     6   ar
     6     7    11   am
     7     6     8   ar
     8     9    14    1
     9     3    10   am
    10    11    13    1
    11     5    12   am
    12    13    16    1
    13     7    14    1
    14    12    15    1
    15     1    16    1
    16    15    17    1
    17    15    18    1
    18     3    19    2
    19     7    20    2
    20     5    21    2
    21    22    25   ar
    22    17    23   ar
    23    14    24    1
    24    18    25    1
    25    17    26   ar
    26     2    27    1
    27    10    28    1
    28    10    29    1
    29     8    30   ar
    30     6    31   ar
    31    24    32    1
    32    22    33   ar
    33    25    34   ar
    34    32    35    1
    35    32    36    1
    36    28    37    1
    37    29    38    1
    38    31    39   ar
    39    39    40   ar
    40    41    42   ar
    41    34    42   ar
    42    37    43    1
    43    38    44    1
    44     2     8   ar
    45    30    40   ar
    46    33    41   ar
    47    43    44    1
    48     4    45    1
    49     9    46    1
    50    11    47    1
    51    12    48    1
    52    13    49    1
    53    14    50    1
    54    15    51    1
    55    16    52    1
    56    16    53    1
    57    18    54    1
    58    18    55    1
    59    24    56    1
    60    24    57    1
    61    27    58    1
    62    27    59    1
    63    27    60    1
    64    28    61    1
    65    28    62    1
    66    29    63    1
    67    29    64    1
    68    30    65    1
    69    31    66    1
    70    32    67    1
    71    33    68    1
    72    34    69    1
    73    35    70    1
    74    35    71    1
    75    35    72    1
    76    36    73    1
    77    36    74    1
    78    36    75    1
    79    37    76    1
    80    37    77    1
    81    38    78    1
    82    38    79    1
    83    39    80    1
    84    40    81    1
    85    41    82    1
    86    42    83    1
    87    43    84    1
    88    43    85    1
    89    44    86    1
    90    44    87    1
@<TRIPOS>MOLECULE
HTS1204-03362316-01
 87 90 0 0 0
SMALL
USER_CHARGES

@<TRIPOS>ATOM
      1 C1          1.7879   -1.9391   -1.2855 C.ar    1  UNK1       -0.0199
      2 N1          3.6948   -2.1112   -2.4372 N.ar    1  UNK1       -0.3494
      3 C2         -2.3662   -3.3991   -1.5509 C.2     1  UNK1        0.3028
      4 C3          3.1529   -2.1261   -1.1861 C.ar    1  UNK1        0.0086
      5 C4          0.7236    0.7351    0.1716 C.2     1  UNK1        0.2342
      6 C5          1.4956   -1.8702   -2.6885 C.ar    1  UNK1        0.0031
      7 C6         -2.2676   -0.8625    1.2785 C.2     1  UNK1        0.2340
      8 C7          2.7003   -2.0252   -3.3832 C.ar    1  UNK1        0.0491
      9 N2         -2.3758   -2.7066   -0.4003 N.am    1  UNK1       -0.2879
     10 N3         -2.8821   -2.9202   -2.7267 N.am    1  UNK1       -0.2856
     11 N4         -0.9149   -0.7162    1.1859 N.am    1  UNK1       -0.3022
     12 N5          1.4368    1.1867   -0.9135 N.am    1  UNK1       -0.3054
     13 C8         -0.0488   -0.6043   -0.0214 C.3     1  UNK1        0.1034
     14 C9         -3.0686   -1.5410    0.1389 C.3     1  UNK1        0.1011
     15 C10         2.3966    2.3134   -0.8026 C.3     1  UNK1        0.0680
     16 C11         0.8814   -1.8207   -0.0961 C.3     1  UNK1        0.0013
     17 C12         3.8747    1.9012   -0.5075 C.2     1  UNK1        0.0623
     18 C13         2.3108    3.2422   -2.0250 C.3     1  UNK1        0.0133
     19 O1         -1.8229   -4.5062   -1.4787 O.2     1  UNK1       -0.2526
     20 O2         -2.8324   -0.3571    2.2519 O.2     1  UNK1       -0.2738
     21 O3          0.6118    1.3767    1.2207 O.2     1  UNK1       -0.2738
     22 N6          1.4029    2.5522   -4.1921 N.ar    1  UNK1       -0.2598
     23 O4          4.0641    0.6927   -0.1842 O.co2   1  UNK1       -0.5479
     24 C14        -4.5090   -1.9098    0.5831 C.3     1  UNK1       -0.0236
     25 C15         2.4934    2.5914   -3.3792 C.ar    1  UNK1        0.0434
     26 O5          4.7412    2.8133   -0.6567 O.co2   1  UNK1       -0.5479
     27 C16         5.1131   -2.1071   -2.7092 C.3     1  UNK1        0.0119
     28 C17        -3.6125   -1.6658   -2.9272 C.3     1  UNK1        0.0161
     29 C18        -2.5978   -3.7125   -3.9277 C.3     1  UNK1        0.0161
     30 C19         2.7675   -2.0315   -4.7871 C.ar    1  UNK1       -0.0376
     31 C20         0.3274   -1.6529   -3.4441 C.ar    1  UNK1       -0.0523
     32 C21        -4.6822   -3.2045    1.4169 C.3     1  UNK1       -0.0446
     33 C22         1.5596    2.0053   -5.4171 C.ar    1  UNK1        0.0279
     34 C23         3.7338    2.1057   -3.7873 C.ar    1  UNK1       -0.0403
     35 C24        -6.1698   -3.5718    1.4870 C.3     1  UNK1       -0.0626
     36 C25        -4.1230   -3.0949    2.8338 C.3     1  UNK1       -0.0626
     37 C26        -4.2696   -1.4630   -4.2966 C.3     1  UNK1       -0.0371
     38 C27        -3.7963   -4.5279   -4.4062 C.3     1  UNK1       -0.0371
     39 C28         0.3817   -1.6347   -4.8425 C.ar    1  UNK1       -0.0611
     40 C29         1.5847   -1.8420   -5.5042 C.ar    1  UNK1       -0.0598
     41 C30         2.7571    1.5044   -5.8948 C.ar    1  UNK1       -0.0436
     42 C31         3.8630    1.5536   -5.0591 C.ar    1  UNK1       -0.0586
     43 C32        -5.3570   -2.4811   -4.6504 C.3     1  UNK1       -0.0516
     44 C33        -5.1631   -3.9052   -4.1333 C.3     1  UNK1       -0.0516
     45 H           3.7864   -2.1667   -0.3077 H       1  UNK1        0.0812
     46 H          -1.9154   -3.2637    0.3085 H       1  UNK1        0.1510
     47 H          -0.5548   -0.1576    1.9605 H       1  UNK1        0.1495
     48 H           1.7477    0.4882   -1.5788 H       1  UNK1        0.1494
     49 H          -0.6908   -0.5026   -0.8995 H       1  UNK1        0.0598
     50 H          -3.1328   -0.7687   -0.6290 H       1  UNK1        0.0595
     51 H           2.1025    2.9084    0.0724 H       1  UNK1        0.0564
     52 H           0.2914   -2.7429   -0.0479 H       1  UNK1        0.0337
     53 H           1.5000   -1.8322    0.8133 H       1  UNK1        0.0337
     54 H           3.0246    4.0719   -1.9462 H       1  UNK1        0.0350
     55 H           1.3185    3.7139   -2.0180 H       1  UNK1        0.0350
     56 H          -5.1166   -2.0391   -0.3189 H       1  UNK1        0.0290
     57 H          -4.9627   -1.0664    1.1192 H       1  UNK1        0.0290
     58 H           5.6704   -2.1510   -1.7700 H       1  UNK1        0.0456
     59 H           5.3607   -1.1857   -3.2427 H       1  UNK1        0.0456
     60 H           5.3499   -2.9824   -3.3195 H       1  UNK1        0.0456
     61 H          -2.9021   -0.8493   -2.7616 H       1  UNK1        0.0465
     62 H          -4.3969   -1.5979   -2.1766 H       1  UNK1        0.0465
     63 H          -1.7544   -4.3935   -3.7630 H       1  UNK1        0.0465
     64 H          -2.2477   -3.0425   -4.7177 H       1  UNK1        0.0465
     65 H           3.7128   -2.1533   -5.3027 H       1  UNK1        0.0638
     66 H          -0.6153   -1.4818   -2.9442 H       1  UNK1        0.0624
     67 H          -4.1754   -4.0359    0.9135 H       1  UNK1        0.0296
     68 H           0.6618    1.9809   -6.0260 H       1  UNK1        0.0829
     69 H           4.5978    2.1593   -3.1303 H       1  UNK1        0.0635
     70 H          -6.7539   -2.7797    1.9672 H       1  UNK1        0.0232
     71 H          -6.3174   -4.4965    2.0556 H       1  UNK1        0.0232
     72 H          -6.5766   -3.7349    0.4832 H       1  UNK1        0.0232
     73 H          -4.5556   -2.2420    3.3673 H       1  UNK1        0.0232
     74 H          -3.0352   -2.9884    2.8258 H       1  UNK1        0.0232
     75 H          -4.3506   -3.9977    3.4119 H       1  UNK1        0.0232
     76 H          -3.5120   -1.4448   -5.0877 H       1  UNK1        0.0280
     77 H          -4.7214   -0.4626   -4.3190 H       1  UNK1        0.0280
     78 H          -3.7715   -5.5066   -3.9102 H       1  UNK1        0.0280
     79 H          -3.6819   -4.7278   -5.4787 H       1  UNK1        0.0280
     80 H          -0.5239   -1.4472   -5.4108 H       1  UNK1        0.0618
     81 H           1.6140   -1.8270   -6.5897 H       1  UNK1        0.0618
     82 H           2.8223    1.0734   -6.8861 H       1  UNK1        0.0633
     83 H           4.8219    1.1627   -5.3834 H       1  UNK1        0.0619
     84 H          -5.4695   -2.5025   -5.7414 H       1  UNK1        0.0266
     85 H          -6.3147   -2.1155   -4.2580 H       1  UNK1        0.0266
     86 H          -5.3581   -3.9253   -3.0532 H       1  UNK1        0.0266
     87 H          -5.9329   -4.5463   -4.5801 H       1  UNK1        0.0266
@<TRIPOS>BOND
     1     2     4   ar
     2     3     9   am
     3     1     4   ar
     4     5    13    1
     5     1     6   ar
     6     7    11   am
     7     6     8   ar
     8     9    14    1
     9     3    10   am
    10    11    13    1
    11     5    12   am
    12    13    16    1
    13     7    14    1
    14    12    15    1
    15     1    16    1
    16    15    17    1
    17    15    18    1
    18     3    19    2
    19     7    20    2
    20     5    21    2
    21    22    25   ar
    22    17    23   ar
    23    14    24    1
    24    18    25    1
    25    17    26   ar
    26     2    27    1
    27    10    28    1
    28    10    29    1
    29     8    30   ar
    30     6    31   ar
    31    24    32    1
    32    22    33   ar
    33    25    34   ar
    34    32    35    1
    35    32    36    1
    36    28    37    1
    37    29    38    1
    38    31    39   ar
    39    39    40   ar
    40    41    42   ar
    41    34    42   ar
    42    37    43    1
    43    38    44    1
    44     2     8   ar
    45    30    40   ar
    46    33    41   ar
    47    43    44    1
    48     4    45    1
    49     9    46    1
    50    11    47    1
    51    12    48    1
    52    13    49    1
    53    14    50    1
    54    15    51    1
    55    16    52    1
    56    16    53    1
    57    18    54    1
    58    18    55    1
    59    24    56    1
    60    24    57    1
    61    27    58    1
    62    27    59    1
    63    27    60    1
    64    28    61    1
    65    28    62    1
    66    29    63    1
    67    29    64    1
    68    30    65    1
    69    31    66    1
    70    32    67    1
    71    33    68    1
    72    34    69    1
    73    35    70    1
    74    35    71    1
    75    35    72    1
    76    36    73    1
    77    36    74    1
    78    36    75    1
    79    37    76    1
    80    37    77    1
    81    38    78    1
    82    38    79    1
    83    39    80    1
    84    40    81    1
    85    41    82    1
    86    42    83    1
    87    43    84    1
    88    43    85    1
    89    44    86    1
    90    44    87    1
@<TRIPOS>MOLECULE
HTS1204-03362316-01
 87 90 0 0 0
SMALL
USER_CHARGES

@<TRIPOS>ATOM
      1 C1          1.6218   -1.8469    1.3211 C.ar    1  UNK1       -0.0199
      2 N1          3.5200   -2.1361    2.4599 N.ar    1  UNK1       -0.3494
      3 C2         -4.5060    1.8689    3.2748 C.2     1  UNK1        0.3028
      4 C3          2.9965   -1.7192    1.2693 C.ar    1  UNK1        0.0086
      5 C4          0.6092    1.0341    0.1860 C.2     1  UNK1        0.2342
      6 C5          1.3109   -2.3898    2.6143 C.ar    1  UNK1        0.0031
      7 C6         -2.2631    0.2886    1.5173 C.2     1  UNK1        0.2340
      8 C7          2.5131   -2.5036    3.3242 C.ar    1  UNK1        0.0491
      9 N2         -3.4866    0.9935    3.5514 N.am    1  UNK1       -0.2879
     10 N3         -4.5772    2.9452    4.1540 N.am    1  UNK1       -0.2856
     11 N4         -1.0068   -0.2909    1.5266 N.am    1  UNK1       -0.3022
     12 N5          0.8314    1.5629   -1.0593 N.am    1  UNK1       -0.3054
     13 C8         -0.1941   -0.2706    0.3132 C.3     1  UNK1        0.1034
     14 C9         -3.1392   -0.1483    2.6983 C.3     1  UNK1        0.1011
     15 C10        -0.0344    1.4448   -2.2697 C.3     1  UNK1        0.0680
     16 C11         0.6819   -1.5303    0.1876 C.3     1  UNK1        0.0013
     17 C12        -0.8630    2.7286   -2.5813 C.2     1  UNK1        0.0623
     18 C13         0.7865    1.3217   -3.5671 C.3     1  UNK1        0.0133
     19 O1         -5.3039    1.7300    2.3559 O.2     1  UNK1       -0.2526
     20 O2         -2.6597    1.0070    0.6079 O.2     1  UNK1       -0.2738
     21 O3          1.1296    1.5553    1.1790 O.2     1  UNK1       -0.2738
     22 N6          2.9879    0.3075   -3.8912 N.ar    1  UNK1       -0.2598
     23 O4         -0.3753    3.7900   -2.0998 O.co2   1  UNK1       -0.5479
     24 C14        -4.3329   -0.9994    2.2069 C.3     1  UNK1       -0.0236
     25 C15         1.6698    0.1018   -3.6316 C.ar    1  UNK1        0.0434
     26 O5         -1.8707    2.5527   -3.3235 O.co2   1  UNK1       -0.5479
     27 C16         4.9335   -2.2182    2.7514 C.3     1  UNK1        0.0119
     28 C17        -5.4028    4.0781    3.7304 C.3     1  UNK1        0.0161
     29 C18        -4.0218    2.9465    5.5044 C.3     1  UNK1        0.0161
     30 C19         2.5563   -2.9381    4.6593 C.ar    1  UNK1       -0.0376
     31 C20         0.1213   -2.7912    3.2563 C.ar    1  UNK1       -0.0523
     32 C21        -3.9496   -2.3604    1.5707 C.3     1  UNK1       -0.0446
     33 C22         3.7956   -0.7649   -3.9418 C.ar    1  UNK1        0.0279
     34 C23         1.1479   -1.1792   -3.4643 C.ar    1  UNK1       -0.0403
     35 C24        -3.6027   -2.2557    0.0800 C.3     1  UNK1       -0.0626
     36 C25        -5.1113   -3.3486    1.7124 C.3     1  UNK1       -0.0626
     37 C26        -5.3878    5.3045    4.6451 C.3     1  UNK1       -0.0371
     38 C27        -2.8022    3.8534    5.6479 C.3     1  UNK1       -0.0371
     39 C28         0.1494   -3.2162    4.5887 C.ar    1  UNK1       -0.0611
     40 C29         1.3533   -3.2765    5.2832 C.ar    1  UNK1       -0.0598
     41 C30         3.3613   -2.0624   -3.7454 C.ar    1  UNK1       -0.0436
     42 C31         2.0119   -2.2713   -3.5077 C.ar    1  UNK1       -0.0586
     43 C32        -4.0276    5.9816    4.8343 C.3     1  UNK1       -0.0516
     44 C33        -2.7908    5.0904    4.7511 C.3     1  UNK1       -0.0516
     45 H           3.6335   -1.3680    0.4661 H       1  UNK1        0.0812
     46 H          -2.6826    1.4802    3.9187 H       1  UNK1        0.1510
     47 H          -0.4937   -0.2718    2.3982 H       1  UNK1        0.1495
     48 H           1.2200    2.5018   -0.9943 H       1  UNK1        0.1494
     49 H          -0.9060   -0.3202   -0.5089 H       1  UNK1        0.0598
     50 H          -2.5331   -0.7838    3.3575 H       1  UNK1        0.0595
     51 H          -0.7278    0.6105   -2.1731 H       1  UNK1        0.0564
     52 H           1.2744   -1.4586   -0.7285 H       1  UNK1        0.0337
     53 H           0.0239   -2.4011    0.0580 H       1  UNK1        0.0337
     54 H           1.4111    2.2146   -3.7000 H       1  UNK1        0.0350
     55 H           0.1223    1.2812   -4.4438 H       1  UNK1        0.0350
     56 H          -4.9332   -0.4428    1.4777 H       1  UNK1        0.0290
     57 H          -4.9835   -1.1806    3.0730 H       1  UNK1        0.0290
     58 H           5.5081   -2.0146    1.8443 H       1  UNK1        0.0456
     59 H           5.1580   -3.2318    3.1000 H       1  UNK1        0.0456
     60 H           5.1719   -1.4830    3.5224 H       1  UNK1        0.0456
     61 H          -6.4342    3.7142    3.6479 H       1  UNK1        0.0465
     62 H          -5.0875    4.3639    2.7183 H       1  UNK1        0.0465
     63 H          -3.7525    1.9294    5.8104 H       1  UNK1        0.0465
     64 H          -4.8127    3.2410    6.2026 H       1  UNK1        0.0465
     65 H           3.4943   -3.0018    5.2022 H       1  UNK1        0.0638
     66 H          -0.8218   -2.7596    2.7212 H       1  UNK1        0.0624
     67 H          -3.0890   -2.7811    2.1030 H       1  UNK1        0.0296
     68 H           4.8376   -0.5417   -4.1489 H       1  UNK1        0.0829
     69 H           0.0875   -1.3252   -3.2825 H       1  UNK1        0.0635
     70 H          -4.4223   -1.8046   -0.4901 H       1  UNK1        0.0232
     71 H          -3.4057   -3.2468   -0.3440 H       1  UNK1        0.0232
     72 H          -2.7081   -1.6657   -0.0987 H       1  UNK1        0.0232
     73 H          -6.0036   -2.9854    1.1900 H       1  UNK1        0.0232
     74 H          -5.3661   -3.5041    2.7630 H       1  UNK1        0.0232
     75 H          -4.8440   -4.3224    1.2867 H       1  UNK1        0.0232
     76 H          -5.7968    5.0400    5.6271 H       1  UNK1        0.0280
     77 H          -6.0858    6.0491    4.2409 H       1  UNK1        0.0280
     78 H          -1.9034    3.2689    5.4134 H       1  UNK1        0.0280
     79 H          -2.7035    4.1506    6.6989 H       1  UNK1        0.0280
     80 H          -0.7763   -3.4971    5.0832 H       1  UNK1        0.0618
     81 H           1.3603   -3.5988    6.3218 H       1  UNK1        0.0618
     82 H           4.0613   -2.8909   -3.7833 H       1  UNK1        0.0633
     83 H           1.6285   -3.2746   -3.3447 H       1  UNK1        0.0619
     84 H          -4.0332    6.5051    5.7988 H       1  UNK1        0.0266
     85 H          -3.9222    6.7644    4.0720 H       1  UNK1        0.0266
     86 H          -2.6395    4.7804    3.7098 H       1  UNK1        0.0266
     87 H          -1.9104    5.6937    5.0066 H       1  UNK1        0.0266
@<TRIPOS>BOND
     1     2     4   ar
     2     3     9   am
     3     1     4   ar
     4     5    13    1
     5     1     6   ar
     6     7    11   am
     7     6     8   ar
     8     9    14    1
     9     3    10   am
    10    11    13    1
    11     5    12   am
    12    13    16    1
    13     7    14    1
    14    12    15    1
    15     1    16    1
    16    15    17    1
    17    15    18    1
    18     3    19    2
    19     7    20    2
    20     5    21    2
    21    22    25   ar
    22    17    23   ar
    23    14    24    1
    24    18    25    1
    25    17    26   ar
    26     2    27    1
    27    10    28    1
    28    10    29    1
    29     8    30   ar
    30     6    31   ar
    31    24    32    1
    32    22    33   ar
    33    25    34   ar
    34    32    35    1
    35    32    36    1
    36    28    37    1
    37    29    38    1
    38    31    39   ar
    39    39    40   ar
    40    41    42   ar
    41    34    42   ar
    42    37    43    1
    43    38    44    1
    44     2     8   ar
    45    30    40   ar
    46    33    41   ar
    47    43    44    1
    48     4    45    1
    49     9    46    1
    50    11    47    1
    51    12    48    1
    52    13    49    1
    53    14    50    1
    54    15    51    1
    55    16    52    1
    56    16    53    1
    57    18    54    1
    58    18    55    1
    59    24    56    1
    60    24    57    1
    61    27    58    1
    62    27    59    1
    63    27    60    1
    64    28    61    1
    65    28    62    1
    66    29    63    1
    67    29    64    1
    68    30    65    1
    69    31    66    1
    70    32    67    1
    71    33    68    1
    72    34    69    1
    73    35    70    1
    74    35    71    1
    75    35    72    1
    76    36    73    1
    77    36    74    1
    78    36    75    1
    79    37    76    1
    80    37    77    1
    81    38    78    1
    82    38    79    1
    83    39    80    1
    84    40    81    1
    85    41    82    1
    86    42    83    1
    87    43    84    1
    88    43    85    1
    89    44    86    1
    90    44    87    1
@<TRIPOS>MOLECULE
HTS1204-03362316-01
 87 90 0 0 0
SMALL
USER_CHARGES

@<TRIPOS>ATOM
      1 C1          1.4982   -2.1761    1.4676 C.ar    1  UNK1       -0.0199
      2 N1          2.8742   -1.9217    3.2100 N.ar    1  UNK1       -0.3494
      3 C2         -3.1643   -2.8180   -1.0148 C.2     1  UNK1        0.3028
      4 C3          1.7416   -1.4411    2.6117 C.ar    1  UNK1        0.0086
      5 C4          0.8486    0.5945    0.3408 C.2     1  UNK1        0.2342
      6 C5          2.5007   -3.2048    1.4326 C.ar    1  UNK1        0.0031
      7 C6         -2.5410   -0.6402    1.2841 C.2     1  UNK1        0.2340
      8 C7          3.3507   -3.0155    2.5250 C.ar    1  UNK1        0.0491
      9 N2         -2.8072   -1.4957   -1.0516 N.am    1  UNK1       -0.2879
     10 N3         -2.5922   -3.6000   -2.0172 N.am    1  UNK1       -0.2856
     11 N4         -1.1979   -0.3945    1.3468 N.am    1  UNK1       -0.3022
     12 N5          1.7354    0.7450   -0.6803 N.am    1  UNK1       -0.3054
     13 C8         -0.1794   -0.5592    0.2956 C.3     1  UNK1        0.1034
     14 C9         -3.2632   -0.4930   -0.0767 C.3     1  UNK1        0.1011
     15 C10         1.9504   -0.0478   -1.9142 C.3     1  UNK1        0.0680
     16 C11         0.4351   -1.9670    0.4203 C.3     1  UNK1        0.0013
     17 C12         1.9002    0.7701   -3.2399 C.2     1  UNK1        0.0623
     18 C13         3.1894   -0.9525   -1.8268 C.3     1  UNK1        0.0133
     19 O1         -3.9114   -3.2734   -0.1559 O.2     1  UNK1       -0.2526
     20 O2         -3.1288   -0.8481    2.3472 O.2     1  UNK1       -0.2738
     21 O3          0.8746    1.3977    1.2804 O.2     1  UNK1       -0.2738
     22 N6          4.5246    0.3275   -0.2035 N.ar    1  UNK1       -0.2598
     23 O4          0.7616    1.2715   -3.4912 O.co2   1  UNK1       -0.5479
     24 C14        -4.8008   -0.4248    0.0306 C.3     1  UNK1       -0.0236
     25 C15         4.4949   -0.3208   -1.3962 C.ar    1  UNK1        0.0434
     26 O5          2.9425    0.7716   -3.9521 O.co2   1  UNK1       -0.5479
     27 C16         3.4946   -1.3291    4.3720 C.3     1  UNK1        0.0119
     28 C17        -1.5010   -3.1251   -2.8859 C.3     1  UNK1        0.0161
     29 C18        -2.9668   -5.0130   -2.0811 C.3     1  UNK1        0.0161
     30 C19         4.4649   -3.8371    2.7584 C.ar    1  UNK1       -0.0376
     31 C20         2.7760   -4.2647    0.5414 C.ar    1  UNK1       -0.0523
     32 C21        -5.4251    0.9098    0.5094 C.3     1  UNK1       -0.0446
     33 C22         5.7192    0.7570    0.2503 C.ar    1  UNK1        0.0279
     34 C23         5.6551   -0.5597   -2.1297 C.ar    1  UNK1       -0.0403
     35 C24        -4.9722    2.1170   -0.3116 C.3     1  UNK1       -0.0626
     36 C25        -5.2280    1.1884    1.9987 C.3     1  UNK1       -0.0626
     37 C26        -0.8920   -4.1586   -3.8345 C.3     1  UNK1       -0.0371
     38 C27        -3.7081   -5.3926   -3.3661 C.3     1  UNK1       -0.0371
     39 C28         3.8835   -5.0894    0.7630 C.ar    1  UNK1       -0.0611
     40 C29         4.7156   -4.8755    1.8570 C.ar    1  UNK1       -0.0598
     41 C30         6.9143    0.5516   -0.4143 C.ar    1  UNK1       -0.0436
     42 C31         6.8777   -0.1197   -1.6293 C.ar    1  UNK1       -0.0586
     43 C32        -1.8253   -4.6201   -4.9551 C.3     1  UNK1       -0.0516
     44 C33        -3.3157   -4.6286   -4.6285 C.3     1  UNK1       -0.0516
     45 H           1.2454   -0.5694    3.0172 H       1  UNK1        0.0812
     46 H          -2.5920   -1.1256   -1.9630 H       1  UNK1        0.1510
     47 H          -0.8400   -0.3934    2.2922 H       1  UNK1        0.1495
     48 H           2.4205    1.4779   -0.5304 H       1  UNK1        0.1494
     49 H          -0.6805   -0.4693   -0.6687 H       1  UNK1        0.0598
     50 H          -2.9055    0.4528   -0.4971 H       1  UNK1        0.0595
     51 H           1.0900   -0.7164   -2.0217 H       1  UNK1        0.0564
     52 H           0.8602   -2.2537   -0.5453 H       1  UNK1        0.0337
     53 H          -0.3630   -2.6977    0.6097 H       1  UNK1        0.0337
     54 H           3.3260   -1.4686   -2.7865 H       1  UNK1        0.0350
     55 H           2.9976   -1.7492   -1.1029 H       1  UNK1        0.0350
     56 H          -5.1712   -1.2295    0.6778 H       1  UNK1        0.0290
     57 H          -5.2202   -0.6263   -0.9653 H       1  UNK1        0.0290
     58 H           2.9273   -0.4483    4.6845 H       1  UNK1        0.0456
     59 H           4.5136   -1.0341    4.1088 H       1  UNK1        0.0456
     60 H           3.5000   -2.0691    5.1761 H       1  UNK1        0.0456
     61 H          -0.7117   -2.7518   -2.2262 H       1  UNK1        0.0465
     62 H          -1.8672   -2.2714   -3.4666 H       1  UNK1        0.0465
     63 H          -3.6069   -5.2875   -1.2352 H       1  UNK1        0.0465
     64 H          -2.0636   -5.6182   -1.9531 H       1  UNK1        0.0465
     65 H           5.1232   -3.6679    3.6030 H       1  UNK1        0.0638
     66 H           2.1401   -4.4302   -0.3225 H       1  UNK1        0.0624
     67 H          -6.5083    0.8062    0.3559 H       1  UNK1        0.0296
     68 H           5.6851    1.2803    1.2003 H       1  UNK1        0.0829
     69 H           5.6064   -1.0894   -3.0758 H       1  UNK1        0.0635
     70 H          -3.9268    2.3755   -0.1145 H       1  UNK1        0.0232
     71 H          -5.5755    2.9961   -0.0608 H       1  UNK1        0.0232
     72 H          -5.0866    1.9274   -1.3835 H       1  UNK1        0.0232
     73 H          -4.1920    1.4531    2.2306 H       1  UNK1        0.0232
     74 H          -5.5172    0.3225    2.6028 H       1  UNK1        0.0232
     75 H          -5.8529    2.0306    2.3157 H       1  UNK1        0.0232
     76 H          -0.5307   -5.0282   -3.2741 H       1  UNK1        0.0280
     77 H           0.0052   -3.7264   -4.2954 H       1  UNK1        0.0280
     78 H          -4.7821   -5.2288   -3.2070 H       1  UNK1        0.0280
     79 H          -3.5902   -6.4703   -3.5340 H       1  UNK1        0.0280
     80 H           4.0982   -5.8951    0.0667 H       1  UNK1        0.0618
     81 H           5.5785   -5.5182    2.0099 H       1  UNK1        0.0618
     82 H           7.8479    0.9069    0.0034 H       1  UNK1        0.0633
     83 H           7.7906   -0.3054   -2.1856 H       1  UNK1        0.0619
     84 H          -1.5136   -5.6185   -5.2854 H       1  UNK1        0.0266
     85 H          -1.6794   -3.9592   -5.8193 H       1  UNK1        0.0266
     86 H          -3.6762   -3.5950   -4.5511 H       1  UNK1        0.0266
     87 H          -3.8560   -5.0606   -5.4803 H       1  UNK1        0.0266
@<TRIPOS>BOND
     1     2     4   ar
     2     3     9   am
     3     1     4   ar
     4     5    13    1
     5     1     6   ar
     6     7    11   am
     7     6     8   ar
     8     9    14    1
     9     3    10   am
    10    11    13    1
    11     5    12   am
    12    13    16    1
    13     7    14    1
    14    12    15    1
    15     1    16    1
    16    15    17    1
    17    15    18    1
    18     3    19    2
    19     7    20    2
    20     5    21    2
    21    22    25   ar
    22    17    23   ar
    23    14    24    1
    24    18    25    1
    25    17    26   ar
    26     2    27    1
    27    10    28    1
    28    10    29    1
    29     8    30   ar
    30     6    31   ar
    31    24    32    1
    32    22    33   ar
    33    25    34   ar
    34    32    35    1
    35    32    36    1
    36    28    37    1
    37    29    38    1
    38    31    39   ar
    39    39    40   ar
    40    41    42   ar
    41    34    42   ar
    42    37    43    1
    43    38    44    1
    44     2     8   ar
    45    30    40   ar
    46    33    41   ar
    47    43    44    1
    48     4    45    1
    49     9    46    1
    50    11    47    1
    51    12    48    1
    52    13    49    1
    53    14    50    1
    54    15    51    1
    55    16    52    1
    56    16    53    1
    57    18    54    1
    58    18    55    1
    59    24    56    1
    60    24    57    1
    61    27    58    1
    62    27    59    1
    63    27    60    1
    64    28    61    1
    65    28    62    1
    66    29    63    1
    67    29    64    1
    68    30    65    1
    69    31    66    1
    70    32    67    1
    71    33    68    1
    72    34    69    1
    73    35    70    1
    74    35    71    1
    75    35    72    1
    76    36    73    1
    77    36    74    1
    78    36    75    1
    79    37    76    1
    80    37    77    1
    81    38    78    1
    82    38    79    1
    83    39    80    1
    84    40    81    1
    85    41    82    1
    86    42    83    1
    87    43    84    1
    88    43    85    1
    89    44    86    1
    90    44    87    1
@<TRIPOS>MOLECULE
HTS1204-03362316-01
 87 90 0 0 0
SMALL
USER_CHARGES

@<TRIPOS>ATOM
      1 C1          1.7651   -2.2684    1.1938 C.ar    1  UNK1       -0.0199
      2 N1          3.0099   -2.1387    3.0453 N.ar    1  UNK1       -0.3494
      3 C2         -4.4187    2.8147    0.2119 C.2     1  UNK1        0.3028
      4 C3          1.9215   -1.6185    2.3989 C.ar    1  UNK1        0.0086
      5 C4          1.0008    0.5763    0.2997 C.2     1  UNK1        0.2342
      6 C5          2.7504   -3.3135    1.1746 C.ar    1  UNK1        0.0031
      7 C6         -2.3560   -0.0658    0.9779 C.2     1  UNK1        0.2340
      8 C7          3.5119   -3.2105    2.3426 C.ar    1  UNK1        0.0491
      9 N2         -3.2190    2.1814    0.4183 N.am    1  UNK1       -0.2879
     10 N3         -4.5342    4.1005    0.7218 N.am    1  UNK1       -0.2856
     11 N4         -1.1196   -0.6422    0.9953 N.am    1  UNK1       -0.3022
     12 N5          0.5771    1.4557    1.2481 N.am    1  UNK1       -0.3054
     13 C8          0.0511   -0.6199    0.0932 C.3     1  UNK1        0.1034
     14 C9         -2.9362    0.8619   -0.1447 C.3     1  UNK1        0.1011
     15 C10         1.1886    2.7452    1.5959 C.3     1  UNK1        0.0680
     16 C11         0.8093   -1.9619    0.0766 C.3     1  UNK1        0.0013
     17 C12         0.1207    3.7585    2.0912 C.2     1  UNK1        0.0623
     18 C13         2.3017    2.6050    2.6375 C.3     1  UNK1        0.0133
     19 O1         -5.3116    2.3040   -0.4685 O.2     1  UNK1       -0.2526
     20 O2         -3.0457   -0.3122    1.9808 O.2     1  UNK1       -0.2738
     21 O3          2.0128    0.7362   -0.3802 O.2     1  UNK1       -0.2738
     22 N6          0.9995    1.2007    4.1959 N.ar    1  UNK1       -0.2598
     23 O4          0.5376    4.8919    2.4581 O.co2   1  UNK1       -0.5479
     24 C14        -2.1827    0.9197   -1.4792 C.3     1  UNK1       -0.0236
     25 C15         1.8514    2.2442    4.0403 C.ar    1  UNK1        0.0434
     26 O5         -1.0715    3.3185    2.0137 O.co2   1  UNK1       -0.5479
     27 C16         3.5655   -1.5941    4.2633 C.3     1  UNK1        0.0119
     28 C17        -3.5750    4.6833    1.6660 C.3     1  UNK1        0.0161
     29 C18        -5.5990    4.9566    0.2205 C.3     1  UNK1        0.0161
     30 C19         4.5795   -4.0801    2.6181 C.ar    1  UNK1       -0.0376
     31 C20         3.0751   -4.3253    0.2458 C.ar    1  UNK1       -0.0523
     32 C21        -2.8744    1.5719   -2.6979 C.3     1  UNK1       -0.0446
     33 C22         0.6101    0.8796    5.4469 C.ar    1  UNK1        0.0279
     34 C23         2.3747    2.9273    5.1356 C.ar    1  UNK1       -0.0403
     35 C24        -2.2306    1.0199   -3.9817 C.3     1  UNK1       -0.0626
     36 C25        -2.7432    3.0958   -2.7254 C.3     1  UNK1       -0.0626
     37 C26        -3.9895    5.9941    2.3362 C.3     1  UNK1       -0.0371
     38 C27        -6.7281    5.1934    1.2252 C.3     1  UNK1       -0.0371
     39 C28         4.1337   -5.1999    0.5122 C.ar    1  UNK1       -0.0611
     40 C29         4.8745   -5.0765    1.6832 C.ar    1  UNK1       -0.0598
     41 C30         1.0827    1.5098    6.5822 C.ar    1  UNK1       -0.0436
     42 C31         1.9884    2.5496    6.4200 C.ar    1  UNK1       -0.0586
     43 C32        -5.2353    5.8989    3.2148 C.3     1  UNK1       -0.0516
     44 C33        -6.3649    5.0113    2.6976 C.3     1  UNK1       -0.0516
     45 H           1.3942   -0.7750    2.8204 H       1  UNK1        0.0812
     46 H          -2.5035    2.6156    1.0161 H       1  UNK1        0.1510
     47 H          -0.9437   -1.0660    1.8998 H       1  UNK1        0.1495
     48 H          -0.2938    1.2975    1.7492 H       1  UNK1        0.1494
     49 H          -0.3226   -0.5138   -0.9193 H       1  UNK1        0.0598
     50 H          -3.9006    0.3863   -0.3749 H       1  UNK1        0.0595
     51 H           1.6207    3.1491    0.6719 H       1  UNK1        0.0564
     52 H           1.3915   -1.9955   -0.8553 H       1  UNK1        0.0337
     53 H           0.0823   -2.7825    0.0151 H       1  UNK1        0.0337
     54 H           2.8614    3.5488    2.6747 H       1  UNK1        0.0350
     55 H           3.0165    1.8373    2.3150 H       1  UNK1        0.0350
     56 H          -2.0143   -0.1244   -1.7665 H       1  UNK1        0.0290
     57 H          -1.2106    1.4035   -1.3354 H       1  UNK1        0.0290
     58 H           3.2578   -0.5523    4.3708 H       1  UNK1        0.0456
     59 H           4.6565   -1.6339    4.2088 H       1  UNK1        0.0456
     60 H           3.1987   -2.1888    5.1027 H       1  UNK1        0.0456
     61 H          -2.6632    4.8750    1.0922 H       1  UNK1        0.0465
     62 H          -3.3787    3.9381    2.4435 H       1  UNK1        0.0465
     63 H          -6.0293    4.5391   -0.6976 H       1  UNK1        0.0465
     64 H          -5.1510    5.9063   -0.0942 H       1  UNK1        0.0465
     65 H           5.1672   -3.9832    3.5245 H       1  UNK1        0.0638
     66 H           2.5075   -4.4229   -0.6744 H       1  UNK1        0.0624
     67 H          -3.9353    1.2965   -2.7121 H       1  UNK1        0.0296
     68 H          -0.1139    0.0728    5.5085 H       1  UNK1        0.0829
     69 H           3.0593    3.7567    4.9913 H       1  UNK1        0.0635
     70 H          -1.1614    1.2584   -4.0203 H       1  UNK1        0.0232
     71 H          -2.7049    1.4431   -4.8734 H       1  UNK1        0.0232
     72 H          -2.3356   -0.0689   -4.0386 H       1  UNK1        0.0232
     73 H          -1.7059    3.4101   -2.5702 H       1  UNK1        0.0232
     74 H          -3.3567    3.5770   -1.9657 H       1  UNK1        0.0232
     75 H          -3.0731    3.4962   -3.6907 H       1  UNK1        0.0232
     76 H          -4.1336    6.7775    1.5836 H       1  UNK1        0.0280
     77 H          -3.1564    6.3443    2.9593 H       1  UNK1        0.0280
     78 H          -7.5407    4.4917    0.9978 H       1  UNK1        0.0280
     79 H          -7.1434    6.1956    1.0621 H       1  UNK1        0.0280
     80 H           4.3801   -5.9764   -0.2066 H       1  UNK1        0.0618
     81 H           5.6989   -5.7589    1.8727 H       1  UNK1        0.0618
     82 H           0.7415    1.2074    7.5644 H       1  UNK1        0.0633
     83 H           2.3771    3.0806    7.2828 H       1  UNK1        0.0619
     84 H          -5.6178    6.9138    3.3798 H       1  UNK1        0.0266
     85 H          -4.9411    5.5247    4.2038 H       1  UNK1        0.0266
     86 H          -6.1093    3.9595    2.8783 H       1  UNK1        0.0266
     87 H          -7.2589    5.2024    3.3043 H       1  UNK1        0.0266
@<TRIPOS>BOND
     1     2     4   ar
     2     3     9   am
     3     1     4   ar
     4     5    13    1
     5     1     6   ar
     6     7    11   am
     7     6     8   ar
     8     9    14    1
     9     3    10   am
    10    11    13    1
    11     5    12   am
    12    13    16    1
    13     7    14    1
    14    12    15    1
    15     1    16    1
    16    15    17    1
    17    15    18    1
    18     3    19    2
    19     7    20    2
    20     5    21    2
    21    22    25   ar
    22    17    23   ar
    23    14    24    1
    24    18    25    1
    25    17    26   ar
    26     2    27    1
    27    10    28    1
    28    10    29    1
    29     8    30   ar
    30     6    31   ar
    31    24    32    1
    32    22    33   ar
    33    25    34   ar
    34    32    35    1
    35    32    36    1
    36    28    37    1
    37    29    38    1
    38    31    39   ar
    39    39    40   ar
    40    41    42   ar
    41    34    42   ar
    42    37    43    1
    43    38    44    1
    44     2     8   ar
    45    30    40   ar
    46    33    41   ar
    47    43    44    1
    48     4    45    1
    49     9    46    1
    50    11    47    1
    51    12    48    1
    52    13    49    1
    53    14    50    1
    54    15    51    1
    55    16    52    1
    56    16    53    1
    57    18    54    1
    58    18    55    1
    59    24    56    1
    60    24    57    1
    61    27    58    1
    62    27    59    1
    63    27    60    1
    64    28    61    1
    65    28    62    1
    66    29    63    1
    67    29    64    1
    68    30    65    1
    69    31    66    1
    70    32    67    1
    71    33    68    1
    72    34    69    1
    73    35    70    1
    74    35    71    1
    75    35    72    1
    76    36    73    1
    77    36    74    1
    78    36    75    1
    79    37    76    1
    80    37    77    1
    81    38    78    1
    82    38    79    1
    83    39    80    1
    84    40    81    1
    85    41    82    1
    86    42    83    1
    87    43    84    1
    88    43    85    1
    89    44    86    1
    90    44    87    1
@<TRIPOS>MOLECULE
HTS1204-03362316-01
 87 90 0 0 0
SMALL
USER_CHARGES

@<TRIPOS>ATOM
      1 C1          0.1602   -3.1642   -0.0474 C.ar    1  UNK1       -0.0199
      2 N1         -0.8895   -4.8158   -1.1235 N.ar    1  UNK1       -0.3494
      3 C2         -3.9452    1.4171    3.7115 C.2     1  UNK1        0.3028
      4 C3         -0.3003   -3.5903   -1.2801 C.ar    1  UNK1        0.0086
      5 C4          0.9229    0.6403    0.1645 C.2     1  UNK1        0.2342
      6 C5         -0.1417   -4.2122    0.8852 C.ar    1  UNK1        0.0031
      7 C6         -1.2184   -0.8574    2.3097 C.2     1  UNK1        0.2340
      8 C7         -0.8275   -5.2149    0.1935 C.ar    1  UNK1        0.0491
      9 N2         -3.1553    0.6474    2.9402 N.am    1  UNK1       -0.2879
     10 N3         -4.1812    1.1788    5.0454 N.am    1  UNK1       -0.2856
     11 N4         -1.1735   -0.4618    0.9982 N.am    1  UNK1       -0.3022
     12 N5          0.9318    1.3093    1.3692 N.am    1  UNK1       -0.3054
     13 C8          0.0036   -0.5989    0.1110 C.3     1  UNK1        0.1034
     14 C9         -2.5532   -0.6749    3.0609 C.3     1  UNK1        0.1011
     15 C10         1.1017    2.7756    1.3822 C.3     1  UNK1        0.0680
     16 C11         0.8723   -1.8682    0.2381 C.3     1  UNK1        0.0013
     17 C12        -0.2400    3.5278    1.0959 C.2     1  UNK1        0.0623
     18 C13         1.7065    3.2598    2.7064 C.3     1  UNK1        0.0133
     19 O1         -4.4645    2.3818    3.1400 O.2     1  UNK1       -0.2526
     20 O2         -0.2786   -1.4193    2.8708 O.2     1  UNK1       -0.2738
     21 O3          1.6802    0.9189   -0.7658 O.2     1  UNK1       -0.2738
     22 N6          1.3415    1.8685    4.6942 N.ar    1  UNK1       -0.2598
     23 O4         -1.2514    2.7616    0.9445 O.co2   1  UNK1       -0.5479
     24 C14        -3.5363   -1.8497    2.8245 C.3     1  UNK1       -0.0236
     25 C15         0.9114    2.9209    3.9495 C.ar    1  UNK1        0.0434
     26 O5         -0.1705    4.7909    1.0806 O.co2   1  UNK1       -0.5479
     27 C16        -1.4963   -5.5792   -2.1891 C.3     1  UNK1        0.0119
     28 C17        -3.6741    0.0753    5.8644 C.3     1  UNK1        0.0161
     29 C18        -4.9468    2.2084    5.7518 C.3     1  UNK1        0.0161
     30 C19        -1.3237   -6.3625    0.8368 C.ar    1  UNK1       -0.0376
     31 C20         0.0924   -4.3951    2.2645 C.ar    1  UNK1       -0.0523
     32 C21        -4.3753   -2.0060    1.5357 C.3     1  UNK1       -0.0446
     33 C22         0.6315    1.5519    5.7976 C.ar    1  UNK1        0.0279
     34 C23        -0.2055    3.6703    4.3104 C.ar    1  UNK1       -0.0403
     35 C24        -3.6283   -2.6845    0.3936 C.3     1  UNK1       -0.0626
     36 C25        -5.0711   -0.7406    1.0523 C.3     1  UNK1       -0.0626
     37 C26        -4.2675   -0.0696    7.2710 C.3     1  UNK1       -0.0371
     38 C27        -6.3924    1.7891    6.0201 C.3     1  UNK1       -0.0371
     39 C28        -0.4035   -5.5267    2.9181 C.ar    1  UNK1       -0.0611
     40 C29        -1.1091   -6.4935    2.2121 C.ar    1  UNK1       -0.0598
     41 C30        -0.4863    2.2471    6.2225 C.ar    1  UNK1       -0.0436
     42 C31        -0.9124    3.3247    5.4588 C.ar    1  UNK1       -0.0586
     43 C32        -5.7690   -0.3665    7.3028 C.3     1  UNK1       -0.0516
     44 C33        -6.6183    0.2908    6.2169 C.3     1  UNK1       -0.0516
     45 H          -0.2569   -3.1079   -2.2480 H       1  UNK1        0.0812
     46 H          -2.9827    1.1534    2.0733 H       1  UNK1        0.1510
     47 H          -1.7753    0.3190    0.7446 H       1  UNK1        0.1495
     48 H           0.1770    1.0393    1.9870 H       1  UNK1        0.1494
     49 H          -0.4375   -0.5778   -0.8953 H       1  UNK1        0.0598
     50 H          -2.2201   -0.7547    4.0968 H       1  UNK1        0.0595
     51 H           1.7859    3.0430    0.5668 H       1  UNK1        0.0564
     52 H           1.3664   -1.9092    1.2143 H       1  UNK1        0.0337
     53 H           1.7007   -1.7969   -0.4821 H       1  UNK1        0.0337
     54 H           1.8778    4.3430    2.6852 H       1  UNK1        0.0350
     55 H           2.7007    2.8045    2.8146 H       1  UNK1        0.0350
     56 H          -4.2800   -1.8180    3.6289 H       1  UNK1        0.0290
     57 H          -2.9862   -2.7876    2.9856 H       1  UNK1        0.0290
     58 H          -1.2947   -5.0968   -3.1486 H       1  UNK1        0.0456
     59 H          -2.5739   -5.6219   -2.0108 H       1  UNK1        0.0456
     60 H          -1.0648   -6.5838   -2.1881 H       1  UNK1        0.0456
     61 H          -2.5926    0.2121    5.9561 H       1  UNK1        0.0465
     62 H          -3.8631   -0.8623    5.3493 H       1  UNK1        0.0465
     63 H          -4.9588    3.1536    5.1962 H       1  UNK1        0.0465
     64 H          -4.4244    2.4613    6.6803 H       1  UNK1        0.0465
     65 H          -1.8713   -7.1234    0.2920 H       1  UNK1        0.0638
     66 H           0.6398   -3.6448    2.8284 H       1  UNK1        0.0624
     67 H          -5.1786   -2.7085    1.8052 H       1  UNK1        0.0296
     68 H           0.9988    0.6911    6.3473 H       1  UNK1        0.0829
     69 H          -0.5357    4.5064    3.6986 H       1  UNK1        0.0635
     70 H          -2.8646   -2.0419   -0.0436 H       1  UNK1        0.0232
     71 H          -4.3230   -2.9551   -0.4099 H       1  UNK1        0.0232
     72 H          -3.1623   -3.6098    0.7400 H       1  UNK1        0.0232
     73 H          -4.3629   -0.0218    0.6314 H       1  UNK1        0.0232
     74 H          -5.6279   -0.2647    1.8654 H       1  UNK1        0.0232
     75 H          -5.7933   -0.9831    0.2644 H       1  UNK1        0.0232
     76 H          -4.0546    0.8184    7.8759 H       1  UNK1        0.0280
     77 H          -3.7484   -0.8896    7.7842 H       1  UNK1        0.0280
     78 H          -7.0076    2.1049    5.1676 H       1  UNK1        0.0280
     79 H          -6.7679    2.3435    6.8883 H       1  UNK1        0.0280
     80 H          -0.2382   -5.6375    3.9861 H       1  UNK1        0.0618
     81 H          -1.4969   -7.3628    2.7361 H       1  UNK1        0.0618
     82 H          -1.0188    1.9482    7.1161 H       1  UNK1        0.0633
     83 H          -1.7966    3.8902    5.7363 H       1  UNK1        0.0619
     84 H          -6.1581   -0.0859    8.2892 H       1  UNK1        0.0266
     85 H          -5.9107   -1.4521    7.2221 H       1  UNK1        0.0266
     86 H          -6.4482   -0.2275    5.2640 H       1  UNK1        0.0266
     87 H          -7.6769    0.1241    6.4521 H       1  UNK1        0.0266
@<TRIPOS>BOND
     1     2     4   ar
     2     3     9   am
     3     1     4   ar
     4     5    13    1
     5     1     6   ar
     6     7    11   am
     7     6     8   ar
     8     9    14    1
     9     3    10   am
    10    11    13    1
    11     5    12   am
    12    13    16    1
    13     7    14    1
    14    12    15    1
    15     1    16    1
    16    15    17    1
    17    15    18    1
    18     3    19    2
    19     7    20    2
    20     5    21    2
    21    22    25   ar
    22    17    23   ar
    23    14    24    1
    24    18    25    1
    25    17    26   ar
    26     2    27    1
    27    10    28    1
    28    10    29    1
    29     8    30   ar
    30     6    31   ar
    31    24    32    1
    32    22    33   ar
    33    25    34   ar
    34    32    35    1
    35    32    36    1
    36    28    37    1
    37    29    38    1
    38    31    39   ar
    39    39    40   ar
    40    41    42   ar
    41    34    42   ar
    42    37    43    1
    43    38    44    1
    44     2     8   ar
    45    30    40   ar
    46    33    41   ar
    47    43    44    1
    48     4    45    1
    49     9    46    1
    50    11    47    1
    51    12    48    1
    52    13    49    1
    53    14    50    1
    54    15    51    1
    55    16    52    1
    56    16    53    1
    57    18    54    1
    58    18    55    1
    59    24    56    1
    60    24    57    1
    61    27    58    1
    62    27    59    1
    63    27    60    1
    64    28    61    1
    65    28    62    1
    66    29    63    1
    67    29    64    1
    68    30    65    1
    69    31    66    1
    70    32    67    1
    71    33    68    1
    72    34    69    1
    73    35    70    1
    74    35    71    1
    75    35    72    1
    76    36    73    1
    77    36    74    1
    78    36    75    1
    79    37    76    1
    80    37    77    1
    81    38    78    1
    82    38    79    1
    83    39    80    1
    84    40    81    1
    85    41    82    1
    86    42    83    1
    87    43    84    1
    88    43    85    1
    89    44    86    1
    90    44    87    1
@<TRIPOS>MOLECULE
HTS1204-03362316-01
 87 90 0 0 0
SMALL
USER_CHARGES

@<TRIPOS>ATOM
      1 C1          1.7650   -1.9254    1.0882 C.ar    1  UNK1       -0.0199
      2 N1          2.9729   -1.9825    2.9733 N.ar    1  UNK1       -0.3494
      3 C2         -3.8156    1.6993   -0.2694 C.2     1  UNK1        0.3028
      4 C3          1.9671   -1.3317    2.3163 C.ar    1  UNK1        0.0086
      5 C4          0.8551    1.0387    0.5462 C.2     1  UNK1        0.2342
      6 C5          2.6489   -3.0623    1.0540 C.ar    1  UNK1        0.0031
      7 C6         -2.4401   -0.7228    0.8830 C.2     1  UNK1        0.2340
      8 C7          3.3902   -3.0707    2.2420 C.ar    1  UNK1        0.0491
      9 N2         -4.2190    0.3836   -0.3701 N.am    1  UNK1       -0.2879
     10 N3         -4.8579    2.5854   -0.0368 N.am    1  UNK1       -0.2856
     11 N4         -1.1251   -0.4629    1.0853 N.am    1  UNK1       -0.3022
     12 N5          0.2240    1.9875    1.3127 N.am    1  UNK1       -0.3054
     13 C8          0.0023   -0.1960    0.1820 C.3     1  UNK1        0.1034
     14 C9         -3.1954   -0.6559   -0.4858 C.3     1  UNK1        0.1011
     15 C10         0.9051    3.2059    1.7968 C.3     1  UNK1        0.0680
     16 C11         0.8677   -1.4616   -0.0366 C.3     1  UNK1        0.0013
     17 C12        -0.0231    4.3145    2.3796 C.2     1  UNK1        0.0623
     18 C13         2.0316    2.8959    2.7962 C.3     1  UNK1        0.0133
     19 O1         -2.6387    2.0272   -0.3516 O.2     1  UNK1       -0.2526
     20 O2         -3.1136   -0.9833    1.8953 O.2     1  UNK1       -0.2738
     21 O3          1.9881    1.1964    0.0860 O.2     1  UNK1       -0.2738
     22 N6          0.8108    1.3029    4.2420 N.ar    1  UNK1       -0.2598
     23 O4         -1.2610    4.1652    2.1551 O.co2   1  UNK1       -0.5479
     24 C14        -2.4428   -0.6470   -1.8220 C.3     1  UNK1       -0.0236
     25 C15         1.6014    2.4036    4.1647 C.ar    1  UNK1        0.0434
     26 O5          0.5636    5.2718    2.9688 O.co2   1  UNK1       -0.5479
     27 C16         3.5430   -1.5401    4.2256 C.3     1  UNK1        0.0119
     28 C17        -6.2095    2.3634   -0.5439 C.3     1  UNK1        0.0161
     29 C18        -4.5271    3.8851    0.5329 C.3     1  UNK1        0.0161
     30 C19         4.3697   -4.0399    2.5108 C.ar    1  UNK1       -0.0376
     31 C20         2.9065   -4.0699    0.1000 C.ar    1  UNK1       -0.0523
     32 C21        -3.2522   -0.8976   -3.1165 C.3     1  UNK1       -0.0446
     33 C22         0.4851    0.8417    5.4667 C.ar    1  UNK1        0.0279
     34 C23         2.1154    3.0124    5.3077 C.ar    1  UNK1       -0.0403
     35 C24        -4.1224    0.2914   -3.5251 C.3     1  UNK1       -0.0626
     36 C25        -4.0796   -2.1792   -3.0748 C.3     1  UNK1       -0.0626
     37 C26        -6.9678    3.6336   -0.9421 C.3     1  UNK1       -0.0371
     38 C27        -4.2398    4.9600   -0.5165 C.3     1  UNK1       -0.0371
     39 C28         3.8777   -5.0444    0.3596 C.ar    1  UNK1       -0.0611
     40 C29         4.6001   -5.0273    1.5488 C.ar    1  UNK1       -0.0598
     41 C30         0.9605    1.3864    6.6447 C.ar    1  UNK1       -0.0436
     42 C31         1.7961    2.4918    6.5595 C.ar    1  UNK1       -0.0586
     43 C32        -6.2975    4.4889   -2.0201 C.3     1  UNK1       -0.0516
     44 C33        -4.7844    4.6805   -1.9166 C.3     1  UNK1       -0.0516
     45 H           1.5258   -0.4474    2.7492 H       1  UNK1        0.0812
     46 H          -4.9339    0.1862    0.3120 H       1  UNK1        0.1510
     47 H          -0.8813   -0.4266    2.0705 H       1  UNK1        0.1495
     48 H          -0.7956    2.0301    1.3540 H       1  UNK1        0.1494
     49 H          -0.4005    0.0770   -0.7855 H       1  UNK1        0.0598
     50 H          -3.7684   -1.5929   -0.4749 H       1  UNK1        0.0595
     51 H           1.3672    3.6492    0.9038 H       1  UNK1        0.0564
     52 H           1.5126   -1.2905   -0.9087 H       1  UNK1        0.0337
     53 H           0.2062   -2.2989   -0.2987 H       1  UNK1        0.0337
     54 H           2.6488    3.7962    2.9164 H       1  UNK1        0.0350
     55 H           2.7094    2.1378    2.3851 H       1  UNK1        0.0350
     56 H          -1.6698   -1.4239   -1.7777 H       1  UNK1        0.0290
     57 H          -1.9322    0.3094   -1.9688 H       1  UNK1        0.0290
     58 H           3.2382   -0.5099    4.4251 H       1  UNK1        0.0456
     59 H           4.6329   -1.5806    4.1522 H       1  UNK1        0.0456
     60 H           3.1848   -2.2008    5.0183 H       1  UNK1        0.0456
     61 H          -6.7660    1.8502    0.2485 H       1  UNK1        0.0465
     62 H          -6.1693    1.6866   -1.4028 H       1  UNK1        0.0465
     63 H          -3.6587    3.7795    1.1916 H       1  UNK1        0.0465
     64 H          -5.3512    4.1894    1.1880 H       1  UNK1        0.0465
     65 H           4.9429   -4.0233    3.4313 H       1  UNK1        0.0638
     66 H           2.3570   -4.0857   -0.8362 H       1  UNK1        0.0624
     67 H          -2.5063   -1.0208   -3.9142 H       1  UNK1        0.0296
     68 H          -0.1858   -0.0120    5.4701 H       1  UNK1        0.0829
     69 H           2.7479    3.8903    5.2221 H       1  UNK1        0.0635
     70 H          -5.0190    0.3714   -2.9063 H       1  UNK1        0.0232
     71 H          -4.4563    0.1780   -4.5624 H       1  UNK1        0.0232
     72 H          -3.5672    1.2329   -3.4596 H       1  UNK1        0.0232
     73 H          -4.9243   -2.0954   -2.3838 H       1  UNK1        0.0232
     74 H          -3.4644   -3.0310   -2.7681 H       1  UNK1        0.0232
     75 H          -4.4878   -2.4013   -4.0668 H       1  UNK1        0.0232
     76 H          -7.1513    4.2544   -0.0573 H       1  UNK1        0.0280
     77 H          -7.9640    3.3466   -1.3034 H       1  UNK1        0.0280
     78 H          -3.1514    5.0748   -0.5997 H       1  UNK1        0.0280
     79 H          -4.6138    5.9244   -0.1516 H       1  UNK1        0.0280
     80 H           4.0739   -5.8166   -0.3802 H       1  UNK1        0.0618
     81 H           5.3581   -5.7845    1.7315 H       1  UNK1        0.0618
     82 H           0.6761    0.9684    7.6018 H       1  UNK1        0.0633
     83 H           2.1862    2.9602    7.4568 H       1  UNK1        0.0619
     84 H          -6.7799    5.4747   -2.0188 H       1  UNK1        0.0266
     85 H          -6.5135    4.0531   -3.0040 H       1  UNK1        0.0266
     86 H          -4.2817    3.7976   -2.3308 H       1  UNK1        0.0266
     87 H          -4.4957    5.5106   -2.5740 H       1  UNK1        0.0266
@<TRIPOS>BOND
     1     2     4   ar
     2     3     9   am
     3     1     4   ar
     4     5    13    1
     5     1     6   ar
     6     7    11   am
     7     6     8   ar
     8     9    14    1
     9     3    10   am
    10    11    13    1
    11     5    12   am
    12    13    16    1
    13     7    14    1
    14    12    15    1
    15     1    16    1
    16    15    17    1
    17    15    18    1
    18     3    19    2
    19     7    20    2
    20     5    21    2
    21    22    25   ar
    22    17    23   ar
    23    14    24    1
    24    18    25    1
    25    17    26   ar
    26     2    27    1
    27    10    28    1
    28    10    29    1
    29     8    30   ar
    30     6    31   ar
    31    24    32    1
    32    22    33   ar
    33    25    34   ar
    34    32    35    1
    35    32    36    1
    36    28    37    1
    37    29    38    1
    38    31    39   ar
    39    39    40   ar
    40    41    42   ar
    41    34    42   ar
    42    37    43    1
    43    38    44    1
    44     2     8   ar
    45    30    40   ar
    46    33    41   ar
    47    43    44    1
    48     4    45    1
    49     9    46    1
    50    11    47    1
    51    12    48    1
    52    13    49    1
    53    14    50    1
    54    15    51    1
    55    16    52    1
    56    16    53    1
    57    18    54    1
    58    18    55    1
    59    24    56    1
    60    24    57    1
    61    27    58    1
    62    27    59    1
    63    27    60    1
    64    28    61    1
    65    28    62    1
    66    29    63    1
    67    29    64    1
    68    30    65    1
    69    31    66    1
    70    32    67    1
    71    33    68    1
    72    34    69    1
    73    35    70    1
    74    35    71    1
    75    35    72    1
    76    36    73    1
    77    36    74    1
    78    36    75    1
    79    37    76    1
    80    37    77    1
    81    38    78    1
    82    38    79    1
    83    39    80    1
    84    40    81    1
    85    41    82    1
    86    42    83    1
    87    43    84    1
    88    43    85    1
    89    44    86    1
    90    44    87    1
@<TRIPOS>MOLECULE
HTS1204-03362316-01
 87 90 0 0 0
SMALL
USER_CHARGES

@<TRIPOS>ATOM
      1 C1         -0.0984   -3.1702   -0.2180 C.ar    1  UNK1       -0.0199
      2 N1         -0.9351   -4.9535   -1.2649 N.ar    1  UNK1       -0.3494
      3 C2         -4.7502   -0.9453    2.5572 C.2     1  UNK1        0.3028
      4 C3         -0.1486   -3.8459   -1.4230 C.ar    1  UNK1        0.0086
      5 C4          0.5568    0.7068   -0.3199 C.2     1  UNK1        0.2342
      6 C5         -0.8829   -3.9280    0.7091 C.ar    1  UNK1        0.0031
      7 C6         -1.0388   -0.3435    2.1895 C.2     1  UNK1        0.2340
      8 C7         -1.4513   -4.9969    0.0114 C.ar    1  UNK1        0.0491
      9 N2         -3.4130   -0.8974    2.4609 N.am    1  UNK1       -0.2879
     10 N3         -5.4947   -0.0903    3.3249 N.am    1  UNK1       -0.2856
     11 N4         -1.2925   -0.4534    0.8424 N.am    1  UNK1       -0.3022
     12 N5          1.9043    0.6694   -0.0887 N.am    1  UNK1       -0.3054
     13 C8         -0.2159   -0.6255   -0.1471 C.3     1  UNK1        0.1034
     14 C9         -2.2945   -0.1725    3.0952 C.3     1  UNK1        0.1011
     15 C10         2.8078    1.8324   -0.1849 C.3     1  UNK1        0.0680
     16 C11         0.6511   -1.8896    0.0451 C.3     1  UNK1        0.0013
     17 C12         4.1105    1.6365    0.6461 C.2     1  UNK1        0.0623
     18 C13         3.1594    2.2054   -1.6347 C.3     1  UNK1        0.0133
     19 O1         -5.2849   -1.8395    1.8910 O.2     1  UNK1       -0.2526
     20 O2          0.1044   -0.3245    2.6326 O.2     1  UNK1       -0.2738
     21 O3         -0.0433    1.7379   -0.6376 O.2     1  UNK1       -0.2738
     22 N6          3.0488    0.6656   -3.5444 N.ar    1  UNK1       -0.2598
     23 O4          4.9295    2.5983    0.6383 O.co2   1  UNK1       -0.5479
     24 C14        -2.0020   -0.7563    4.4986 C.3     1  UNK1       -0.0236
     25 C15         3.7775    1.1124   -2.4846 C.ar    1  UNK1        0.0434
     26 O5          4.2028    0.5063    1.2170 O.co2   1  UNK1       -0.5479
     27 C16        -1.1621   -5.9524   -2.2835 C.3     1  UNK1        0.0119
     28 C17        -5.0194    0.9993    4.1756 C.3     1  UNK1        0.0161
     29 C18        -6.9444   -0.2974    3.3156 C.3     1  UNK1        0.0161
     30 C19        -2.3508   -5.8904    0.6164 C.ar    1  UNK1       -0.0376
     31 C20        -1.1720   -3.7965    2.0817 C.ar    1  UNK1       -0.0523
     32 C21        -1.0968    0.0986    5.4157 C.3     1  UNK1       -0.0446
     33 C22         3.6021   -0.2855   -4.3274 C.ar    1  UNK1        0.0279
     34 C23         5.0605    0.6319   -2.2264 C.ar    1  UNK1       -0.0403
     35 C24        -0.7308   -0.7094    6.6650 C.3     1  UNK1       -0.0626
     36 C25        -1.7365    1.4216    5.8345 C.3     1  UNK1       -0.0626
     37 C26        -5.9273    1.3741    5.3552 C.3     1  UNK1       -0.0371
     38 C27        -7.4218   -1.1428    4.5029 C.3     1  UNK1       -0.0371
     39 C28        -2.0780   -4.6677    2.6934 C.ar    1  UNK1       -0.0611
     40 C29        -2.6684   -5.6930    1.9635 C.ar    1  UNK1       -0.0598
     41 C30         4.8596   -0.8249   -4.1229 C.ar    1  UNK1       -0.0436
     42 C31         5.6005   -0.3538   -3.0493 C.ar    1  UNK1       -0.0586
     43 C32        -6.2106    0.2327    6.3354 C.3     1  UNK1       -0.0516
     44 C33        -6.5049   -1.1389    5.7279 C.3     1  UNK1       -0.0516
     45 H           0.3274   -3.6222   -2.3693 H       1  UNK1        0.0812
     46 H          -3.1076   -1.6729    1.8776 H       1  UNK1        0.1510
     47 H          -2.1900   -0.1265    0.5017 H       1  UNK1        0.1495
     48 H           2.3104   -0.0460    0.5154 H       1  UNK1        0.1494
     49 H          -0.7431   -0.7470   -1.1050 H       1  UNK1        0.0598
     50 H          -2.5417    0.8910    3.1143 H       1  UNK1        0.0595
     51 H           2.2778    2.6795    0.2698 H       1  UNK1        0.0564
     52 H           1.0899   -1.9306    1.0477 H       1  UNK1        0.0337
     53 H           1.4993   -1.8589   -0.6520 H       1  UNK1        0.0337
     54 H           3.8347    3.0704   -1.6579 H       1  UNK1        0.0350
     55 H           2.2418    2.5384   -2.1375 H       1  UNK1        0.0350
     56 H          -1.5296   -1.7386    4.3720 H       1  UNK1        0.0290
     57 H          -2.9387   -0.9700    5.0280 H       1  UNK1        0.0290
     58 H          -0.5173   -5.7523   -3.1433 H       1  UNK1        0.0456
     59 H          -2.2117   -5.9093   -2.5827 H       1  UNK1        0.0456
     60 H          -0.9173   -6.9340   -1.8682 H       1  UNK1        0.0456
     61 H          -4.8839    1.8724    3.5280 H       1  UNK1        0.0465
     62 H          -4.0574    0.7446    4.5912 H       1  UNK1        0.0465
     63 H          -7.2675   -0.7828    2.3868 H       1  UNK1        0.0465
     64 H          -7.4421    0.6784    3.2974 H       1  UNK1        0.0465
     65 H          -2.7993   -6.7056    0.0595 H       1  UNK1        0.0638
     66 H          -0.6878   -3.0192    2.6621 H       1  UNK1        0.0624
     67 H          -0.1607    0.3340    4.9007 H       1  UNK1        0.0296
     68 H           2.9828   -0.6122   -5.1566 H       1  UNK1        0.0829
     69 H           5.6448    1.0128   -1.3927 H       1  UNK1        0.0635
     70 H          -1.6231   -0.9772    7.2409 H       1  UNK1        0.0232
     71 H          -0.0635   -0.1369    7.3179 H       1  UNK1        0.0232
     72 H          -0.2127   -1.6346    6.3907 H       1  UNK1        0.0232
     73 H          -2.6624    1.2569    6.3951 H       1  UNK1        0.0232
     74 H          -1.9611    2.0513    4.9691 H       1  UNK1        0.0232
     75 H          -1.0567    1.9894    6.4794 H       1  UNK1        0.0232
     76 H          -6.8772    1.7862    4.9972 H       1  UNK1        0.0280
     77 H          -5.4540    2.1934    5.9118 H       1  UNK1        0.0280
     78 H          -7.5152   -2.1839    4.1675 H       1  UNK1        0.0280
     79 H          -8.4327   -0.8263    4.7867 H       1  UNK1        0.0280
     80 H          -2.3192   -4.5381    3.7448 H       1  UNK1        0.0618
     81 H          -3.3780   -6.3576    2.4499 H       1  UNK1        0.0618
     82 H           5.2518   -1.5897   -4.7811 H       1  UNK1        0.0633
     83 H           6.5919   -0.7444   -2.8418 H       1  UNK1        0.0619
     84 H          -7.0545    0.5291    6.9708 H       1  UNK1        0.0266
     85 H          -5.3518    0.1238    7.0104 H       1  UNK1        0.0266
     86 H          -5.5561   -1.6264    5.4689 H       1  UNK1        0.0266
     87 H          -6.9508   -1.7748    6.5034 H       1  UNK1        0.0266
@<TRIPOS>BOND
     1     2     4   ar
     2     3     9   am
     3     1     4   ar
     4     5    13    1
     5     1     6   ar
     6     7    11   am
     7     6     8   ar
     8     9    14    1
     9     3    10   am
    10    11    13    1
    11     5    12   am
    12    13    16    1
    13     7    14    1
    14    12    15    1
    15     1    16    1
    16    15    17    1
    17    15    18    1
    18     3    19    2
    19     7    20    2
    20     5    21    2
    21    22    25   ar
    22    17    23   ar
    23    14    24    1
    24    18    25    1
    25    17    26   ar
    26     2    27    1
    27    10    28    1
    28    10    29    1
    29     8    30   ar
    30     6    31   ar
    31    24    32    1
    32    22    33   ar
    33    25    34   ar
    34    32    35    1
    35    32    36    1
    36    28    37    1
    37    29    38    1
    38    31    39   ar
    39    39    40   ar
    40    41    42   ar
    41    34    42   ar
    42    37    43    1
    43    38    44    1
    44     2     8   ar
    45    30    40   ar
    46    33    41   ar
    47    43    44    1
    48     4    45    1
    49     9    46    1
    50    11    47    1
    51    12    48    1
    52    13    49    1
    53    14    50    1
    54    15    51    1
    55    16    52    1
    56    16    53    1
    57    18    54    1
    58    18    55    1
    59    24    56    1
    60    24    57    1
    61    27    58    1
    62    27    59    1
    63    27    60    1
    64    28    61    1
    65    28    62    1
    66    29    63    1
    67    29    64    1
    68    30    65    1
    69    31    66    1
    70    32    67    1
    71    33    68    1
    72    34    69    1
    73    35    70    1
    74    35    71    1
    75    35    72    1
    76    36    73    1
    77    36    74    1
    78    36    75    1
    79    37    76    1
    80    37    77    1
    81    38    78    1
    82    38    79    1
    83    39    80    1
    84    40    81    1
    85    41    82    1
    86    42    83    1
    87    43    84    1
    88    43    85    1
    89    44    86    1
    90    44    87    1
@<TRIPOS>MOLECULE
HTS1204-03362316-01
 87 90 0 0 0
SMALL
USER_CHARGES

@<TRIPOS>ATOM
      1 C1          1.8723   -1.9174    1.0059 C.ar    1  UNK1       -0.0199
      2 N1          3.0339   -1.9679    2.9210 N.ar    1  UNK1       -0.3494
      3 C2         -3.8694    1.8168   -0.7450 C.2     1  UNK1        0.3028
      4 C3          2.0641   -1.3025    2.2252 C.ar    1  UNK1        0.0086
      5 C4          0.9273    1.0348    0.4179 C.2     1  UNK1        0.2342
      6 C5          2.7373   -3.0680    1.0088 C.ar    1  UNK1        0.0031
      7 C6         -2.3423   -0.4818    0.8563 C.2     1  UNK1        0.2340
      8 C7          3.4501   -3.0720    2.2137 C.ar    1  UNK1        0.0491
      9 N2         -4.1508    0.5194   -0.3932 N.am    1  UNK1       -0.2879
     10 N3         -4.9092    2.7091   -0.5120 N.am    1  UNK1       -0.2856
     11 N4         -0.9974   -0.4893    0.9955 N.am    1  UNK1       -0.3022
     12 N5          0.2955    1.9185    1.2541 N.am    1  UNK1       -0.3054
     13 C8          0.1033   -0.2228    0.0595 C.3     1  UNK1        0.1034
     14 C9         -3.1422   -0.5386   -0.4785 C.3     1  UNK1        0.1011
     15 C10         0.9093    3.1551    1.7711 C.3     1  UNK1        0.0680
     16 C11         0.9980   -1.4665   -0.1411 C.3     1  UNK1        0.0013
     17 C12        -0.1032    4.1604    2.4005 C.2     1  UNK1        0.0623
     18 C13         2.0459    2.8811    2.7672 C.3     1  UNK1        0.0133
     19 O1         -2.8136    2.1366   -1.2812 O.2     1  UNK1       -0.2526
     20 O2         -2.9990   -0.4880    1.9127 O.2     1  UNK1       -0.2738
     21 O3          2.0303    1.2540   -0.0843 O.2     1  UNK1       -0.2738
     22 N6          0.8330    1.2666    4.1959 N.ar    1  UNK1       -0.2598
     23 O4         -1.3259    3.8446    2.2673 O.co2   1  UNK1       -0.5479
     24 C14        -2.4569   -0.7247   -1.8391 C.3     1  UNK1       -0.0236
     25 C15         1.6337    2.3603    4.1311 C.ar    1  UNK1        0.0434
     26 O5          0.4039    5.1899    2.9344 O.co2   1  UNK1       -0.5479
     27 C16         3.5677   -1.5283    4.1902 C.3     1  UNK1        0.0119
     28 C17        -6.2469    2.3122   -0.0605 C.3     1  UNK1        0.0161
     29 C18        -4.6662    4.1193   -0.7973 C.3     1  UNK1        0.0161
     30 C19         4.4050   -4.0554    2.5201 C.ar    1  UNK1       -0.0376
     31 C20         2.9978   -4.0953    0.0761 C.ar    1  UNK1       -0.0523
     32 C21        -3.3414   -1.0782   -3.0610 C.3     1  UNK1       -0.0446
     33 C22         0.5011    0.7975    5.4165 C.ar    1  UNK1        0.0279
     34 C23         2.1620    2.9464    5.2799 C.ar    1  UNK1       -0.0403
     35 C24        -4.1741    0.0949   -3.5801 C.3     1  UNK1       -0.0626
     36 C25        -4.2289   -2.2988   -2.8319 C.3     1  UNK1       -0.0626
     37 C26        -7.3577    3.3457   -0.2671 C.3     1  UNK1       -0.0371
     38 C27        -5.2149    4.5405   -2.1640 C.3     1  UNK1       -0.0371
     39 C28         3.9461   -5.0822    0.3721 C.ar    1  UNK1       -0.0611
     40 C29         4.6401   -5.0593    1.5778 C.ar    1  UNK1       -0.0598
     41 C30         0.9843    1.3238    6.6002 C.ar    1  UNK1       -0.0436
     42 C31         1.8374    2.4164    6.5265 C.ar    1  UNK1       -0.0586
     43 C32        -7.6339    3.7201   -1.7250 C.3     1  UNK1       -0.0516
     44 C33        -6.4305    3.7577   -2.6646 C.3     1  UNK1       -0.0516
     45 H           1.6314   -0.4031    2.6360 H       1  UNK1        0.0812
     46 H          -4.6571    0.4846    0.4823 H       1  UNK1        0.1510
     47 H          -0.7276   -0.3920    1.9713 H       1  UNK1        0.1495
     48 H          -0.6970    1.8435    1.4717 H       1  UNK1        0.1494
     49 H          -0.3237    0.0318   -0.9048 H       1  UNK1        0.0598
     50 H          -3.7284   -1.4570   -0.3320 H       1  UNK1        0.0595
     51 H           1.3419    3.6560    0.8948 H       1  UNK1        0.0564
     52 H           1.6611   -1.2824   -0.9970 H       1  UNK1        0.0337
     53 H           0.3568   -2.3136   -0.4205 H       1  UNK1        0.0337
     54 H           2.6201    3.8078    2.8986 H       1  UNK1        0.0350
     55 H           2.7530    2.1553    2.3466 H       1  UNK1        0.0350
     56 H          -1.7296   -1.5400   -1.7326 H       1  UNK1        0.0290
     57 H          -1.8812    0.1615   -2.1175 H       1  UNK1        0.0290
     58 H           3.2716   -0.4934    4.3756 H       1  UNK1        0.0456
     59 H           4.6589   -1.5853    4.1542 H       1  UNK1        0.0456
     60 H           3.1726   -2.1803    4.9728 H       1  UNK1        0.0456
     61 H          -6.1631    2.0964    1.0113 H       1  UNK1        0.0465
     62 H          -6.5269    1.3772   -0.5595 H       1  UNK1        0.0465
     63 H          -3.5917    4.3359   -0.7673 H       1  UNK1        0.0465
     64 H          -5.0993    4.7227    0.0073 H       1  UNK1        0.0465
     65 H           4.9551   -4.0353    3.4550 H       1  UNK1        0.0638
     66 H           2.4687   -4.1168   -0.8712 H       1  UNK1        0.0624
     67 H          -2.6426   -1.3373   -3.8688 H       1  UNK1        0.0296
     68 H          -0.1840   -0.0446    5.4124 H       1  UNK1        0.0829
     69 H           2.8055    3.8171    5.2048 H       1  UNK1        0.0635
     70 H          -5.0086    0.3332   -2.9154 H       1  UNK1        0.0232
     71 H          -4.6024   -0.1474   -4.5591 H       1  UNK1        0.0232
     72 H          -3.5589    0.9913   -3.7080 H       1  UNK1        0.0232
     73 H          -5.0298   -2.0898   -2.1158 H       1  UNK1        0.0232
     74 H          -3.6414   -3.1439   -2.4596 H       1  UNK1        0.0232
     75 H          -4.7005   -2.6083   -3.7712 H       1  UNK1        0.0232
     76 H          -7.1412    4.2556    0.3040 H       1  UNK1        0.0280
     77 H          -8.2862    2.9533    0.1673 H       1  UNK1        0.0280
     78 H          -4.4183    4.4144   -2.9089 H       1  UNK1        0.0280
     79 H          -5.4418    5.6131   -2.1429 H       1  UNK1        0.0280
     80 H           4.1451   -5.8679   -0.3513 H       1  UNK1        0.0618
     81 H           5.3801   -5.8267    1.7896 H       1  UNK1        0.0618
     82 H           0.6910    0.9026    7.5534 H       1  UNK1        0.0633
     83 H           2.2334    2.8701    7.4289 H       1  UNK1        0.0619
     84 H          -8.1385    4.6942   -1.7431 H       1  UNK1        0.0266
     85 H          -8.3555    3.0029   -2.1375 H       1  UNK1        0.0266
     86 H          -6.1264    2.7290   -2.8970 H       1  UNK1        0.0266
     87 H          -6.7514    4.1862   -3.6226 H       1  UNK1        0.0266
@<TRIPOS>BOND
     1     2     4   ar
     2     3     9   am
     3     1     4   ar
     4     5    13    1
     5     1     6   ar
     6     7    11   am
     7     6     8   ar
     8     9    14    1
     9     3    10   am
    10    11    13    1
    11     5    12   am
    12    13    16    1
    13     7    14    1
    14    12    15    1
    15     1    16    1
    16    15    17    1
    17    15    18    1
    18     3    19    2
    19     7    20    2
    20     5    21    2
    21    22    25   ar
    22    17    23   ar
    23    14    24    1
    24    18    25    1
    25    17    26   ar
    26     2    27    1
    27    10    28    1
    28    10    29    1
    29     8    30   ar
    30     6    31   ar
    31    24    32    1
    32    22    33   ar
    33    25    34   ar
    34    32    35    1
    35    32    36    1
    36    28    37    1
    37    29    38    1
    38    31    39   ar
    39    39    40   ar
    40    41    42   ar
    41    34    42   ar
    42    37    43    1
    43    38    44    1
    44     2     8   ar
    45    30    40   ar
    46    33    41   ar
    47    43    44    1
    48     4    45    1
    49     9    46    1
    50    11    47    1
    51    12    48    1
    52    13    49    1
    53    14    50    1
    54    15    51    1
    55    16    52    1
    56    16    53    1
    57    18    54    1
    58    18    55    1
    59    24    56    1
    60    24    57    1
    61    27    58    1
    62    27    59    1
    63    27    60    1
    64    28    61    1
    65    28    62    1
    66    29    63    1
    67    29    64    1
    68    30    65    1
    69    31    66    1
    70    32    67    1
    71    33    68    1
    72    34    69    1
    73    35    70    1
    74    35    71    1
    75    35    72    1
    76    36    73    1
    77    36    74    1
    78    36    75    1
    79    37    76    1
    80    37    77    1
    81    38    78    1
    82    38    79    1
    83    39    80    1
    84    40    81    1
    85    41    82    1
    86    42    83    1
    87    43    84    1
    88    43    85    1
    89    44    86    1
    90    44    87    1
@<TRIPOS>MOLECULE
HTS1204-03362316-01
 87 90 0 0 0
SMALL
USER_CHARGES

@<TRIPOS>ATOM
      1 C1          1.5162   -1.8353   -1.1498 C.ar    1  UNK1       -0.0199
      2 N1          2.4538   -1.4334   -3.1407 N.ar    1  UNK1       -0.3494
      3 C2         -4.5094   -3.5625    0.1386 C.2     1  UNK1        0.3028
      4 C3          1.5812   -0.9443   -2.2055 C.ar    1  UNK1        0.0086
      5 C4          0.9576    0.7504    0.8048 C.2     1  UNK1        0.2342
      6 C5          2.3671   -2.9377   -1.5016 C.ar    1  UNK1        0.0031
      7 C6         -2.3657   -0.9326    1.2241 C.2     1  UNK1        0.2340
      8 C7          2.9395   -2.6596   -2.7465 C.ar    1  UNK1        0.0491
      9 N2         -4.0966   -2.2877    0.1784 N.am    1  UNK1       -0.2879
     10 N3         -3.7425   -4.5970   -0.3357 N.am    1  UNK1       -0.2856
     11 N4         -1.0862   -0.4829    1.3394 N.am    1  UNK1       -0.3022
     12 N5          0.2928    1.8501    1.2838 N.am    1  UNK1       -0.3054
     13 C8          0.0003   -0.3761    0.3465 C.3     1  UNK1        0.1034
     14 C9         -2.8926   -1.4967   -0.1124 C.3     1  UNK1        0.1011
     15 C10         0.9174    3.1584    1.5822 C.3     1  UNK1        0.0680
     16 C11         0.7492   -1.7024    0.1434 C.3     1  UNK1        0.0013
     17 C12        -0.1235    4.3020    1.3627 C.2     1  UNK1        0.0623
     18 C13         1.3997    3.1828    3.0344 C.3     1  UNK1        0.0133
     19 O1         -5.6546   -3.7489    0.5618 O.2     1  UNK1       -0.2526
     20 O2         -3.0799   -0.8942    2.2313 O.2     1  UNK1       -0.2738
     21 O3          2.1754    0.7230    0.6513 O.2     1  UNK1       -0.2738
     22 N6          1.8461    5.1362    4.4342 N.ar    1  UNK1       -0.2598
     23 O4         -1.3282    3.9217    1.5159 O.co2   1  UNK1       -0.5479
     24 C14        -3.1662   -0.4873   -1.2436 C.3     1  UNK1       -0.0236
     25 C15         2.2648    4.3628    3.4012 C.ar    1  UNK1        0.0434
     26 O5          0.3316    5.3931    0.9262 O.co2   1  UNK1       -0.5479
     27 C16         2.8381   -0.7364   -4.3478 C.3     1  UNK1        0.0119
     28 C17        -2.3699   -4.4952   -0.8289 C.3     1  UNK1        0.0161
     29 C18        -4.3438   -5.9323   -0.3047 C.3     1  UNK1        0.0161
     30 C19         3.8474   -3.5336   -3.3663 C.ar    1  UNK1       -0.0376
     31 C20         2.7181   -4.1416   -0.8544 C.ar    1  UNK1       -0.0523
     32 C21        -4.1238    0.7078   -1.0458 C.3     1  UNK1       -0.0446
     33 C22         2.5853    6.2241    4.7336 C.ar    1  UNK1        0.0279
     34 C23         3.4586    4.6101    2.7251 C.ar    1  UNK1       -0.0403
     35 C24        -3.6501    1.7107    0.0014 C.3     1  UNK1       -0.0626
     36 C25        -5.5792    0.3176   -0.8027 C.3     1  UNK1       -0.0626
     37 C26        -1.7259   -5.7780   -1.3596 C.3     1  UNK1       -0.0371
     38 C27        -4.7501   -6.4434   -1.6879 C.3     1  UNK1       -0.0371
     39 C28         3.6215   -5.0205   -1.4633 C.ar    1  UNK1       -0.0611
     40 C29         4.1776   -4.7179   -2.7021 C.ar    1  UNK1       -0.0598
     41 C30         3.7677    6.5554    4.0943 C.ar    1  UNK1       -0.0436
     42 C31         4.2172    5.7219    3.0794 C.ar    1  UNK1       -0.0586
     43 C32        -2.3540   -6.3208   -2.6447 C.3     1  UNK1       -0.0516
     44 C33        -3.8403   -6.0353   -2.8446 C.3     1  UNK1       -0.0516
     45 H           1.1199    0.0253   -2.3464 H       1  UNK1        0.0812
     46 H          -4.7565   -1.7736    0.7487 H       1  UNK1        0.1510
     47 H          -0.8871   -0.1085    2.2635 H       1  UNK1        0.1495
     48 H          -0.7257    1.9173    1.2555 H       1  UNK1        0.1494
     49 H          -0.4497   -0.0422   -0.5883 H       1  UNK1        0.0598
     50 H          -2.1086   -2.1495   -0.4701 H       1  UNK1        0.0595
     51 H           1.7469    3.2889    0.8781 H       1  UNK1        0.0564
     52 H           0.0372   -2.5352    0.1773 H       1  UNK1        0.0337
     53 H           1.4417   -1.8657    0.9796 H       1  UNK1        0.0337
     54 H           1.9815    2.2755    3.2470 H       1  UNK1        0.0350
     55 H           0.5369    3.1449    3.7131 H       1  UNK1        0.0350
     56 H          -3.5418   -1.0611   -2.1038 H       1  UNK1        0.0290
     57 H          -2.2139   -0.0722   -1.5856 H       1  UNK1        0.0290
     58 H           2.3056    0.2161   -4.4092 H       1  UNK1        0.0456
     59 H           2.5780   -1.3608   -5.2063 H       1  UNK1        0.0456
     60 H           3.9156   -0.5550   -4.3139 H       1  UNK1        0.0456
     61 H          -1.7656   -4.1436    0.0137 H       1  UNK1        0.0465
     62 H          -2.3538   -3.7484   -1.6283 H       1  UNK1        0.0465
     63 H          -5.2341   -5.9553    0.3362 H       1  UNK1        0.0465
     64 H          -3.6484   -6.6207    0.1858 H       1  UNK1        0.0465
     65 H           4.2938   -3.2976   -4.3268 H       1  UNK1        0.0638
     66 H           2.3020   -4.3802    0.1193 H       1  UNK1        0.0624
     67 H          -4.1116    1.2435   -2.0063 H       1  UNK1        0.0296
     68 H           2.1815    6.8469    5.5249 H       1  UNK1        0.0829
     69 H           3.7828    3.9594    1.9195 H       1  UNK1        0.0635
     70 H          -3.7911    1.3417    1.0201 H       1  UNK1        0.0232
     71 H          -4.2175    2.6444   -0.0827 H       1  UNK1        0.0232
     72 H          -2.5937    1.9539   -0.1436 H       1  UNK1        0.0232
     73 H          -5.7456   -0.0405    0.2162 H       1  UNK1        0.0232
     74 H          -5.9044   -0.4546   -1.5073 H       1  UNK1        0.0232
     75 H          -6.2306    1.1876   -0.9449 H       1  UNK1        0.0232
     76 H          -1.7257   -6.5570   -0.5892 H       1  UNK1        0.0280
     77 H          -0.6650   -5.5779   -1.5570 H       1  UNK1        0.0280
     78 H          -5.7576   -6.0718   -1.9152 H       1  UNK1        0.0280
     79 H          -4.8315   -7.5365   -1.6483 H       1  UNK1        0.0280
     80 H           3.8974   -5.9413   -0.9567 H       1  UNK1        0.0618
     81 H           4.8865   -5.4056   -3.1569 H       1  UNK1        0.0618
     82 H           4.3155    7.4464    4.3731 H       1  UNK1        0.0633
     83 H           5.1365    5.9444    2.5478 H       1  UNK1        0.0619
     84 H          -2.1760   -7.4018   -2.6937 H       1  UNK1        0.0266
     85 H          -1.8167   -5.8886   -3.4986 H       1  UNK1        0.0266
     86 H          -3.9786   -4.9661   -3.0512 H       1  UNK1        0.0266
     87 H          -4.1762   -6.5514   -3.7524 H       1  UNK1        0.0266
@<TRIPOS>BOND
     1     2     4   ar
     2     3     9   am
     3     1     4   ar
     4     5    13    1
     5     1     6   ar
     6     7    11   am
     7     6     8   ar
     8     9    14    1
     9     3    10   am
    10    11    13    1
    11     5    12   am
    12    13    16    1
    13     7    14    1
    14    12    15    1
    15     1    16    1
    16    15    17    1
    17    15    18    1
    18     3    19    2
    19     7    20    2
    20     5    21    2
    21    22    25   ar
    22    17    23   ar
    23    14    24    1
    24    18    25    1
    25    17    26   ar
    26     2    27    1
    27    10    28    1
    28    10    29    1
    29     8    30   ar
    30     6    31   ar
    31    24    32    1
    32    22    33   ar
    33    25    34   ar
    34    32    35    1
    35    32    36    1
    36    28    37    1
    37    29    38    1
    38    31    39   ar
    39    39    40   ar
    40    41    42   ar
    41    34    42   ar
    42    37    43    1
    43    38    44    1
    44     2     8   ar
    45    30    40   ar
    46    33    41   ar
    47    43    44    1
    48     4    45    1
    49     9    46    1
    50    11    47    1
    51    12    48    1
    52    13    49    1
    53    14    50    1
    54    15    51    1
    55    16    52    1
    56    16    53    1
    57    18    54    1
    58    18    55    1
    59    24    56    1
    60    24    57    1
    61    27    58    1
    62    27    59    1
    63    27    60    1
    64    28    61    1
    65    28    62    1
    66    29    63    1
    67    29    64    1
    68    30    65    1
    69    31    66    1
    70    32    67    1
    71    33    68    1
    72    34    69    1
    73    35    70    1
    74    35    71    1
    75    35    72    1
    76    36    73    1
    77    36    74    1
    78    36    75    1
    79    37    76    1
    80    37    77    1
    81    38    78    1
    82    38    79    1
    83    39    80    1
    84    40    81    1
    85    41    82    1
    86    42    83    1
    87    43    84    1
    88    43    85    1
    89    44    86    1
    90    44    87    1
@<TRIPOS>MOLECULE
HTS1204-03362316-01
 87 90 0 0 0
SMALL
USER_CHARGES

@<TRIPOS>ATOM
      1 C1          1.6296   -1.4030   -1.5092 C.ar    1  UNK1       -0.0199
      2 N1          3.3509   -1.1399   -2.8983 N.ar    1  UNK1       -0.3494
      3 C2         -5.4135   -1.1174    3.3301 C.2     1  UNK1        0.3028
      4 C3          2.8814   -0.8403   -1.6515 C.ar    1  UNK1        0.0086
      5 C4          0.0044    1.0324   -0.1798 C.2     1  UNK1        0.2342
      6 C5          1.3180   -2.0447   -2.7477 C.ar    1  UNK1        0.0031
      7 C6         -2.4354   -0.4797    1.2326 C.2     1  UNK1        0.2340
      8 C7          2.4175   -1.8769   -3.5962 C.ar    1  UNK1        0.0491
      9 N2         -4.2457   -1.1196    2.6761 N.am    1  UNK1       -0.2879
     10 N3         -5.7108   -0.2941    4.3823 N.am    1  UNK1       -0.2856
     11 N4         -1.1097   -0.7635    1.0459 N.am    1  UNK1       -0.3022
     12 N5          0.3925    1.4763    1.0793 N.am    1  UNK1       -0.3054
     13 C8         -0.3915   -0.4710   -0.2143 C.3     1  UNK1        0.1034
     14 C9         -2.9492   -0.4139    2.7092 C.3     1  UNK1        0.1011
     15 C10         1.0791    2.7814    1.3074 C.3     1  UNK1        0.0680
     16 C11         0.8275   -1.3978   -0.2554 C.3     1  UNK1        0.0013
     17 C12         2.6110    2.6319    1.0288 C.2     1  UNK1        0.0623
     18 C13         0.3693    4.0005    0.7062 C.3     1  UNK1        0.0133
     19 O1         -6.2429   -1.9362    2.9116 O.2     1  UNK1       -0.2526
     20 O2         -3.1948   -0.2895    0.2819 O.2     1  UNK1       -0.2738
     21 O3          0.0203    1.7299   -1.1892 O.2     1  UNK1       -0.2738
     22 N6         -0.0402    6.4032    0.7549 N.ar    1  UNK1       -0.2598
     23 O4          3.0417    1.4670    1.3220 O.co2   1  UNK1       -0.5479
     24 C14        -2.0393   -1.0612    3.7798 C.3     1  UNK1       -0.0236
     25 C15         0.6201    5.3619    1.3351 C.ar    1  UNK1        0.0434
     26 O5          3.2480    3.6480    0.6527 O.co2   1  UNK1       -0.5479
     27 C16         4.6552   -0.7592   -3.3886 C.3     1  UNK1        0.0119
     28 C17        -7.0938   -0.3966    4.8769 C.3     1  UNK1        0.0161
     29 C18        -4.8713    0.7224    4.9967 C.3     1  UNK1        0.0161
     30 C19         2.4471   -2.4124   -4.8940 C.ar    1  UNK1       -0.0376
     31 C20         0.2054   -2.7731   -3.2179 C.ar    1  UNK1       -0.0523
     32 C21        -0.8256   -0.2357    4.2862 C.3     1  UNK1       -0.0446
     33 C22         0.1817    7.6452    1.2388 C.ar    1  UNK1        0.0279
     34 C23         1.4498    5.5656    2.4374 C.ar    1  UNK1       -0.0403
     35 C24        -0.0685   -1.0459    5.3446 C.3     1  UNK1       -0.0626
     36 C25        -1.1809    1.1388    4.8496 C.3     1  UNK1       -0.0626
     37 C26        -7.5412    0.6314    5.9196 C.3     1  UNK1       -0.0371
     38 C27        -5.1674    2.1334    4.4978 C.3     1  UNK1       -0.0371
     39 C28         0.2218   -3.3040   -4.5121 C.ar    1  UNK1       -0.0611
     40 C29         1.3295   -3.1269   -5.3357 C.ar    1  UNK1       -0.0598
     41 C30         1.0005    7.9208    2.3180 C.ar    1  UNK1       -0.0436
     42 C31         1.6369    6.8550    2.9336 C.ar    1  UNK1       -0.0586
     43 C32        -7.5706    2.0876    5.4417 C.3     1  UNK1       -0.0516
     44 C33        -6.6458    2.4504    4.2823 C.3     1  UNK1       -0.0516
     45 H           3.4717   -0.2613   -0.9469 H       1  UNK1        0.0812
     46 H          -4.3410   -1.7369    1.8752 H       1  UNK1        0.1510
     47 H          -0.5111   -0.8279    1.8479 H       1  UNK1        0.1495
     48 H           0.9460    0.7730    1.5557 H       1  UNK1        0.1494
     49 H          -1.0709   -0.6324   -1.0578 H       1  UNK1        0.0598
     50 H          -3.1392    0.6405    2.9089 H       1  UNK1        0.0595
     51 H           1.0134    2.8642    2.4009 H       1  UNK1        0.0564
     52 H           0.4907   -2.4290   -0.0751 H       1  UNK1        0.0337
     53 H           1.4960   -1.1715    0.5872 H       1  UNK1        0.0337
     54 H          -0.7154    3.8353    0.7726 H       1  UNK1        0.0350
     55 H           0.6124    4.0841   -0.3601 H       1  UNK1        0.0350
     56 H          -1.6745   -2.0246    3.3972 H       1  UNK1        0.0290
     57 H          -2.6472   -1.3253    4.6557 H       1  UNK1        0.0290
     58 H           5.2232   -0.2764   -2.5885 H       1  UNK1        0.0456
     59 H           4.5226   -0.0675   -4.2234 H       1  UNK1        0.0456
     60 H           5.1808   -1.6616   -3.7124 H       1  UNK1        0.0456
     61 H          -7.1966   -1.3995    5.3110 H       1  UNK1        0.0465
     62 H          -7.7756   -0.3542    4.0175 H       1  UNK1        0.0465
     63 H          -3.8267    0.4987    4.8437 H       1  UNK1        0.0465
     64 H          -4.9827    0.6632    6.0840 H       1  UNK1        0.0465
     65 H           3.3060   -2.2742   -5.5412 H       1  UNK1        0.0638
     66 H          -0.6649   -2.9135   -2.5837 H       1  UNK1        0.0624
     67 H          -0.1181   -0.0593    3.4752 H       1  UNK1        0.0296
     68 H          -0.3308    8.4408    0.7087 H       1  UNK1        0.0829
     69 H           1.9939    4.7493    2.8996 H       1  UNK1        0.0635
     70 H          -0.6913   -1.2288    6.2264 H       1  UNK1        0.0232
     71 H           0.8325   -0.5145    5.6700 H       1  UNK1        0.0232
     72 H           0.2457   -2.0145    4.9414 H       1  UNK1        0.0232
     73 H          -1.8372    1.0590    5.7209 H       1  UNK1        0.0232
     74 H          -1.6640    1.7694    4.0981 H       1  UNK1        0.0232
     75 H          -0.2738    1.6644    5.1690 H       1  UNK1        0.0232
     76 H          -6.9199    0.5534    6.8193 H       1  UNK1        0.0280
     77 H          -8.5513    0.3653    6.2570 H       1  UNK1        0.0280
     78 H          -4.6522    2.2952    3.5432 H       1  UNK1        0.0280
     79 H          -4.7334    2.8521    5.2034 H       1  UNK1        0.0280
     80 H          -0.6418   -3.8547   -4.8747 H       1  UNK1        0.0618
     81 H           1.3254   -3.5444   -6.3391 H       1  UNK1        0.0618
     82 H           1.1509    8.9371    2.6585 H       1  UNK1        0.0633
     83 H           2.3020    7.0174    3.7762 H       1  UNK1        0.0619
     84 H          -7.3593    2.7415    6.2969 H       1  UNK1        0.0266
     85 H          -8.5963    2.3254    5.1314 H       1  UNK1        0.0266
     86 H          -6.9942    1.9475    3.3712 H       1  UNK1        0.0266
     87 H          -6.7437    3.5239    4.0781 H       1  UNK1        0.0266
@<TRIPOS>BOND
     1     2     4   ar
     2     3     9   am
     3     1     4   ar
     4     5    13    1
     5     1     6   ar
     6     7    11   am
     7     6     8   ar
     8     9    14    1
     9     3    10   am
    10    11    13    1
    11     5    12   am
    12    13    16    1
    13     7    14    1
    14    12    15    1
    15     1    16    1
    16    15    17    1
    17    15    18    1
    18     3    19    2
    19     7    20    2
    20     5    21    2
    21    22    25   ar
    22    17    23   ar
    23    14    24    1
    24    18    25    1
    25    17    26   ar
    26     2    27    1
    27    10    28    1
    28    10    29    1
    29     8    30   ar
    30     6    31   ar
    31    24    32    1
    32    22    33   ar
    33    25    34   ar
    34    32    35    1
    35    32    36    1
    36    28    37    1
    37    29    38    1
    38    31    39   ar
    39    39    40   ar
    40    41    42   ar
    41    34    42   ar
    42    37    43    1
    43    38    44    1
    44     2     8   ar
    45    30    40   ar
    46    33    41   ar
    47    43    44    1
    48     4    45    1
    49     9    46    1
    50    11    47    1
    51    12    48    1
    52    13    49    1
    53    14    50    1
    54    15    51    1
    55    16    52    1
    56    16    53    1
    57    18    54    1
    58    18    55    1
    59    24    56    1
    60    24    57    1
    61    27    58    1
    62    27    59    1
    63    27    60    1
    64    28    61    1
    65    28    62    1
    66    29    63    1
    67    29    64    1
    68    30    65    1
    69    31    66    1
    70    32    67    1
    71    33    68    1
    72    34    69    1
    73    35    70    1
    74    35    71    1
    75    35    72    1
    76    36    73    1
    77    36    74    1
    78    36    75    1
    79    37    76    1
    80    37    77    1
    81    38    78    1
    82    38    79    1
    83    39    80    1
    84    40    81    1
    85    41    82    1
    86    42    83    1
    87    43    84    1
    88    43    85    1
    89    44    86    1
    90    44    87    1
@<TRIPOS>MOLECULE
HTS1204-03362316-01
 87 90 0 0 0
SMALL
USER_CHARGES

@<TRIPOS>ATOM
      1 C1          1.8202   -1.7109    1.1307 C.ar    1  UNK1       -0.0199
      2 N1          2.7035   -2.8026    2.8658 N.ar    1  UNK1       -0.3494
      3 C2         -4.8377   -0.2411    2.2486 C.2     1  UNK1        0.3028
      4 C3          1.7541   -2.8703    1.8827 C.ar    1  UNK1        0.0086
      5 C4          0.2595    1.1686    0.0255 C.2     1  UNK1        0.2342
      6 C5          2.9422   -0.9725    1.6243 C.ar    1  UNK1        0.0031
      7 C6         -1.1713   -0.6396    2.4555 C.2     1  UNK1        0.2340
      8 C7          3.4565   -1.6592    2.7280 C.ar    1  UNK1        0.0491
      9 N2         -3.6258   -0.8650    2.1460 N.am    1  UNK1       -0.2879
     10 N3         -5.6480   -0.3670    1.1241 N.am    1  UNK1       -0.2856
     11 N4         -1.2594   -0.5230    1.0851 N.am    1  UNK1       -0.3022
     12 N5          0.6838    1.7606    1.1806 N.am    1  UNK1       -0.3054
     13 C8         -0.1646   -0.3062    0.1302 C.3     1  UNK1        0.1034
     14 C9         -2.5628   -0.6955    3.1376 C.3     1  UNK1        0.1011
     15 C10         0.9431    3.2185    1.3129 C.3     1  UNK1        0.0680
     16 C11         0.9424   -1.3611   -0.0264 C.3     1  UNK1        0.0013
     17 C12         1.9941    3.8363    0.3196 C.2     1  UNK1        0.0623
     18 C13        -0.3529    4.0446    1.2644 C.3     1  UNK1        0.0133
     19 O1         -5.1583    0.4045    3.2417 O.2     1  UNK1       -0.2526
     20 O2         -0.1284   -0.6453    3.0974 O.2     1  UNK1       -0.2738
     21 O3          0.1564    1.7513   -1.0543 O.2     1  UNK1       -0.2738
     22 N6         -1.0538    2.9746    3.4009 N.ar    1  UNK1       -0.2598
     23 O4          1.6085    4.8098   -0.3944 O.co2   1  UNK1       -0.5479
     24 C14        -2.6478   -1.7244    4.2787 C.3     1  UNK1       -0.0236
     25 C15        -1.3211    3.8692    2.4190 C.ar    1  UNK1        0.0434
     26 O5          3.1622    3.3471    0.3975 O.co2   1  UNK1       -0.5479
     27 C16         2.8896   -3.7919    3.9005 C.3     1  UNK1        0.0119
     28 C17        -5.1907   -0.9643   -0.1395 C.3     1  UNK1        0.0161
     29 C18        -6.9307    0.3297    1.1363 C.3     1  UNK1        0.0161
     30 C19         4.5351   -1.1655    3.4822 C.ar    1  UNK1       -0.0376
     31 C20         3.5628    0.2299    1.2404 C.ar    1  UNK1       -0.0523
     32 C21        -2.8179   -3.2056    3.8701 C.3     1  UNK1       -0.0446
     33 C22        -1.9310    2.8846    4.4231 C.ar    1  UNK1        0.0279
     34 C23        -2.4662    4.6679    2.4454 C.ar    1  UNK1       -0.0403
     35 C24        -2.9991   -4.0675    5.1244 C.3     1  UNK1       -0.0626
     36 C25        -1.6452   -3.7471    3.0569 C.3     1  UNK1       -0.0626
     37 C26        -6.0471   -0.6778   -1.3731 C.3     1  UNK1       -0.0371
     38 C27        -6.8738    1.7051    0.4689 C.3     1  UNK1       -0.0371
     39 C28         4.6270    0.7392    1.9886 C.ar    1  UNK1       -0.0611
     40 C29         5.1043    0.0517    3.0984 C.ar    1  UNK1       -0.0598
     41 C30        -3.0880    3.6367    4.5182 C.ar    1  UNK1       -0.0436
     42 C31        -3.3581    4.5476    3.5069 C.ar    1  UNK1       -0.0586
     43 C32        -6.0671    0.7888   -1.8127 C.3     1  UNK1       -0.0516
     44 C33        -5.9112    1.8354   -0.7114 C.3     1  UNK1       -0.0516
     45 H           1.0810   -3.7117    1.8133 H       1  UNK1        0.0812
     46 H          -3.5464   -1.6625    1.5377 H       1  UNK1        0.1510
     47 H          -2.1322   -0.0868    0.8067 H       1  UNK1        0.1495
     48 H           0.7258    1.2111    2.0350 H       1  UNK1        0.1494
     49 H          -0.7236   -0.4302   -0.8133 H       1  UNK1        0.0598
     50 H          -2.6914    0.2977    3.5831 H       1  UNK1        0.0595
     51 H           1.3949    3.3320    2.3079 H       1  UNK1        0.0564
     52 H           1.5930   -1.0605   -0.8587 H       1  UNK1        0.0337
     53 H           0.4588   -2.2922   -0.3579 H       1  UNK1        0.0337
     54 H          -0.8978    3.8310    0.3359 H       1  UNK1        0.0350
     55 H          -0.1027    5.1140    1.2544 H       1  UNK1        0.0350
     56 H          -3.5126   -1.4545    4.9005 H       1  UNK1        0.0290
     57 H          -1.7670   -1.6261    4.9263 H       1  UNK1        0.0290
     58 H           2.2067   -4.6289    3.7364 H       1  UNK1        0.0456
     59 H           2.6784   -3.3252    4.8661 H       1  UNK1        0.0456
     60 H           3.9221   -4.1485    3.8607 H       1  UNK1        0.0456
     61 H          -5.1613   -2.0480    0.0261 H       1  UNK1        0.0465
     62 H          -4.1623   -0.6388   -0.3346 H       1  UNK1        0.0465
     63 H          -7.2804    0.4579    2.1679 H       1  UNK1        0.0465
     64 H          -7.6829   -0.3094    0.6631 H       1  UNK1        0.0465
     65 H           4.9098   -1.6958    4.3505 H       1  UNK1        0.0638
     66 H           3.2041    0.8022    0.3869 H       1  UNK1        0.0624
     67 H          -3.7297   -3.3109    3.2694 H       1  UNK1        0.0296
     68 H          -1.6700    2.1576    5.1860 H       1  UNK1        0.0829
     69 H          -2.6508    5.3820    1.6488 H       1  UNK1        0.0635
     70 H          -2.1166   -4.0180    5.7717 H       1  UNK1        0.0232
     71 H          -3.1619   -5.1170    4.8554 H       1  UNK1        0.0232
     72 H          -3.8665   -3.7358    5.7044 H       1  UNK1        0.0232
     73 H          -0.6983   -3.5908    3.5833 H       1  UNK1        0.0232
     74 H          -1.5850   -3.2703    2.0753 H       1  UNK1        0.0232
     75 H          -1.7554   -4.8224    2.8794 H       1  UNK1        0.0232
     76 H          -7.0733   -1.0286   -1.2167 H       1  UNK1        0.0280
     77 H          -5.6669   -1.2783   -2.2094 H       1  UNK1        0.0280
     78 H          -6.5722    2.4461    1.2208 H       1  UNK1        0.0280
     79 H          -7.8863    1.9869    0.1554 H       1  UNK1        0.0280
     80 H           5.0488    1.6997    1.6989 H       1  UNK1        0.0618
     81 H           5.9206    0.4766    3.6750 H       1  UNK1        0.0618
     82 H          -3.7621    3.5109    5.3566 H       1  UNK1        0.0633
     83 H          -4.2519    5.1620    3.5424 H       1  UNK1        0.0619
     84 H          -6.9946    0.9755   -2.3680 H       1  UNK1        0.0266
     85 H          -5.2521    0.9435   -2.5320 H       1  UNK1        0.0266
     86 H          -4.8788    1.8160   -0.3390 H       1  UNK1        0.0266
     87 H          -6.0391    2.8303   -1.1566 H       1  UNK1        0.0266
@<TRIPOS>BOND
     1     2     4   ar
     2     3     9   am
     3     1     4   ar
     4     5    13    1
     5     1     6   ar
     6     7    11   am
     7     6     8   ar
     8     9    14    1
     9     3    10   am
    10    11    13    1
    11     5    12   am
    12    13    16    1
    13     7    14    1
    14    12    15    1
    15     1    16    1
    16    15    17    1
    17    15    18    1
    18     3    19    2
    19     7    20    2
    20     5    21    2
    21    22    25   ar
    22    17    23   ar
    23    14    24    1
    24    18    25    1
    25    17    26   ar
    26     2    27    1
    27    10    28    1
    28    10    29    1
    29     8    30   ar
    30     6    31   ar
    31    24    32    1
    32    22    33   ar
    33    25    34   ar
    34    32    35    1
    35    32    36    1
    36    28    37    1
    37    29    38    1
    38    31    39   ar
    39    39    40   ar
    40    41    42   ar
    41    34    42   ar
    42    37    43    1
    43    38    44    1
    44     2     8   ar
    45    30    40   ar
    46    33    41   ar
    47    43    44    1
    48     4    45    1
    49     9    46    1
    50    11    47    1
    51    12    48    1
    52    13    49    1
    53    14    50    1
    54    15    51    1
    55    16    52    1
    56    16    53    1
    57    18    54    1
    58    18    55    1
    59    24    56    1
    60    24    57    1
    61    27    58    1
    62    27    59    1
    63    27    60    1
    64    28    61    1
    65    28    62    1
    66    29    63    1
    67    29    64    1
    68    30    65    1
    69    31    66    1
    70    32    67    1
    71    33    68    1
    72    34    69    1
    73    35    70    1
    74    35    71    1
    75    35    72    1
    76    36    73    1
    77    36    74    1
    78    36    75    1
    79    37    76    1
    80    37    77    1
    81    38    78    1
    82    38    79    1
    83    39    80    1
    84    40    81    1
    85    41    82    1
    86    42    83    1
    87    43    84    1
    88    43    85    1
    89    44    86    1
    90    44    87    1
@<TRIPOS>MOLECULE
HTS1204-03362316-01
 87 90 0 0 0
SMALL
USER_CHARGES

@<TRIPOS>ATOM
      1 C1          1.7482   -1.9814    1.2630 C.ar    1  UNK1       -0.0199
      2 N1          2.5119   -2.4989    3.2915 N.ar    1  UNK1       -0.3494
      3 C2         -3.9444    1.8765   -0.5294 C.2     1  UNK1        0.3028
      4 C3          1.3732   -2.3235    2.5491 C.ar    1  UNK1        0.0086
      5 C4          0.7064    0.9517    0.8302 C.2     1  UNK1        0.2342
      6 C5          3.1773   -2.0721    1.2124 C.ar    1  UNK1        0.0031
      7 C6         -2.4594   -0.3630    0.9934 C.2     1  UNK1        0.2340
      8 C7          3.6298   -2.3996    2.4924 C.ar    1  UNK1        0.0491
      9 N2         -4.2540    0.5566   -0.3049 N.am    1  UNK1       -0.2879
     10 N3         -5.0232    2.7446   -0.4026 N.am    1  UNK1       -0.2856
     11 N4         -1.1376   -0.5779    1.1779 N.am    1  UNK1       -0.3022
     12 N5          0.1569    2.1143    0.3126 N.am    1  UNK1       -0.3054
     13 C8          0.0057   -0.3188    0.2886 C.3     1  UNK1        0.1034
     14 C9         -3.2154   -0.4745   -0.3633 C.3     1  UNK1        0.1011
     15 C10         0.8186    3.4371    0.4968 C.3     1  UNK1        0.0680
     16 C11         0.8660   -1.5821    0.1206 C.3     1  UNK1        0.0013
     17 C12         2.2502    3.5074   -0.1220 C.2     1  UNK1        0.0623
     18 C13        -0.0405    4.4944   -0.2128 C.3     1  UNK1        0.0133
     19 O1         -2.8193    2.2396   -0.8570 O.2     1  UNK1       -0.2526
     20 O2         -3.1342   -0.2028    2.0258 O.2     1  UNK1       -0.2738
     21 O3          1.4871    0.9442    1.7759 O.2     1  UNK1       -0.2738
     22 N6          1.0980    6.6113   -0.6527 N.ar    1  UNK1       -0.2598
     23 O4          3.1308    4.0911    0.5840 O.co2   1  UNK1       -0.5479
     24 C14        -2.4899   -0.5876   -1.7102 C.3     1  UNK1       -0.0236
     25 C15         0.2554    5.9255    0.1537 C.ar    1  UNK1        0.0434
     26 O5          2.3759    2.9264   -1.2444 O.co2   1  UNK1       -0.5479
     27 C16         2.5380   -2.6939    4.7226 C.3     1  UNK1        0.0119
     28 C17        -6.3948    2.2917   -0.1375 C.3     1  UNK1        0.0161
     29 C18        -4.7991    4.1527   -0.7167 C.3     1  UNK1        0.0161
     30 C19         4.9976   -2.5262    2.7910 C.ar    1  UNK1       -0.0376
     31 C20         4.1303   -1.8674    0.1911 C.ar    1  UNK1       -0.0523
     32 C21        -3.3360   -0.8918   -2.9716 C.3     1  UNK1       -0.0446
     33 C22         1.4113    7.8736   -0.3007 C.ar    1  UNK1        0.0279
     34 C23        -0.3576    6.5135    1.2570 C.ar    1  UNK1       -0.0403
     35 C24        -4.1786    0.2905   -3.4522 C.3     1  UNK1       -0.0626
     36 C25        -4.2038   -2.1390   -2.8247 C.3     1  UNK1       -0.0626
     37 C26        -7.4994    3.3281   -0.3474 C.3     1  UNK1       -0.0371
     38 C27        -5.2211    4.5131   -2.1423 C.3     1  UNK1       -0.0371
     39 C28         5.4932   -1.9952    0.4748 C.ar    1  UNK1       -0.0611
     40 C29         5.9175   -2.3188    1.7601 C.ar    1  UNK1       -0.0598
     41 C30         0.8520    8.5327    0.7789 C.ar    1  UNK1       -0.0436
     42 C31        -0.0636    7.8407    1.5610 C.ar    1  UNK1       -0.0586
     43 C32        -7.6841    3.7910   -1.7958 C.3     1  UNK1       -0.0516
     44 C33        -6.4431    3.7712   -2.6847 C.3     1  UNK1       -0.0516
     45 H           0.3955   -2.3811    3.0080 H       1  UNK1        0.0812
     46 H          -4.8500    0.4478    0.5046 H       1  UNK1        0.1510
     47 H          -0.8857   -0.4435    2.1512 H       1  UNK1        0.1495
     48 H          -0.4049    2.0405   -0.5247 H       1  UNK1        0.1494
     49 H          -0.3549   -0.0626   -0.7019 H       1  UNK1        0.0598
     50 H          -3.7661   -1.4174   -0.2403 H       1  UNK1        0.0595
     51 H           0.8734    3.6164    1.5780 H       1  UNK1        0.0564
     52 H           1.4784   -1.4517   -0.7740 H       1  UNK1        0.0337
     53 H           0.2044   -2.4314   -0.0980 H       1  UNK1        0.0337
     54 H          -1.1015    4.3105    0.0063 H       1  UNK1        0.0350
     55 H           0.0446    4.3867   -1.3020 H       1  UNK1        0.0350
     56 H          -1.7628   -1.4047   -1.6262 H       1  UNK1        0.0290
     57 H          -1.9140    0.3185   -1.9243 H       1  UNK1        0.0290
     58 H           1.5181   -2.7521    5.1063 H       1  UNK1        0.0456
     59 H           3.0553   -1.8428    5.1758 H       1  UNK1        0.0456
     60 H           3.0685   -3.6259    4.9378 H       1  UNK1        0.0456
     61 H          -6.4158    1.9659    0.9094 H       1  UNK1        0.0465
     62 H          -6.6017    1.4087   -0.7535 H       1  UNK1        0.0465
     63 H          -3.7396    4.4059   -0.5929 H       1  UNK1        0.0465
     64 H          -5.3238    4.7677    0.0208 H       1  UNK1        0.0465
     65 H           5.3375   -2.7487    3.7944 H       1  UNK1        0.0638
     66 H           3.8149   -1.5775   -0.8056 H       1  UNK1        0.0624
     67 H          -2.6123   -1.0972   -3.7739 H       1  UNK1        0.0296
     68 H           2.1545    8.3509   -0.9346 H       1  UNK1        0.0829
     69 H          -1.0488    5.9463    1.8703 H       1  UNK1        0.0635
     70 H          -5.0495    0.4589   -2.8141 H       1  UNK1        0.0232
     71 H          -4.5546    0.1021   -4.4629 H       1  UNK1        0.0232
     72 H          -3.5857    1.2102   -3.4901 H       1  UNK1        0.0232
     73 H          -5.0179   -1.9856   -2.1093 H       1  UNK1        0.0232
     74 H          -3.6067   -2.9931   -2.4918 H       1  UNK1        0.0232
     75 H          -4.6576   -2.4042   -3.7873 H       1  UNK1        0.0232
     76 H          -7.3317    4.1987    0.2960 H       1  UNK1        0.0280
     77 H          -8.4500    2.9007   -0.0024 H       1  UNK1        0.0280
     78 H          -4.3828    4.3003   -2.8181 H       1  UNK1        0.0280
     79 H          -5.3888    5.5949   -2.1973 H       1  UNK1        0.0280
     80 H           6.2197   -1.8082   -0.3111 H       1  UNK1        0.0618
     81 H           6.9816   -2.3845    1.9686 H       1  UNK1        0.0618
     82 H           1.1345    9.5509    1.0079 H       1  UNK1        0.0633
     83 H          -0.5317    8.3219    2.4157 H       1  UNK1        0.0619
     84 H          -8.1150    4.7991   -1.7891 H       1  UNK1        0.0266
     85 H          -8.4380    3.1471   -2.2678 H       1  UNK1        0.0266
     86 H          -6.1689    2.7295   -2.8937 H       1  UNK1        0.0266
     87 H          -6.7059    4.2004   -3.6596 H       1  UNK1        0.0266
@<TRIPOS>BOND
     1     2     4   ar
     2     3     9   am
     3     1     4   ar
     4     5    13    1
     5     1     6   ar
     6     7    11   am
     7     6     8   ar
     8     9    14    1
     9     3    10   am
    10    11    13    1
    11     5    12   am
    12    13    16    1
    13     7    14    1
    14    12    15    1
    15     1    16    1
    16    15    17    1
    17    15    18    1
    18     3    19    2
    19     7    20    2
    20     5    21    2
    21    22    25   ar
    22    17    23   ar
    23    14    24    1
    24    18    25    1
    25    17    26   ar
    26     2    27    1
    27    10    28    1
    28    10    29    1
    29     8    30   ar
    30     6    31   ar
    31    24    32    1
    32    22    33   ar
    33    25    34   ar
    34    32    35    1
    35    32    36    1
    36    28    37    1
    37    29    38    1
    38    31    39   ar
    39    39    40   ar
    40    41    42   ar
    41    34    42   ar
    42    37    43    1
    43    38    44    1
    44     2     8   ar
    45    30    40   ar
    46    33    41   ar
    47    43    44    1
    48     4    45    1
    49     9    46    1
    50    11    47    1
    51    12    48    1
    52    13    49    1
    53    14    50    1
    54    15    51    1
    55    16    52    1
    56    16    53    1
    57    18    54    1
    58    18    55    1
    59    24    56    1
    60    24    57    1
    61    27    58    1
    62    27    59    1
    63    27    60    1
    64    28    61    1
    65    28    62    1
    66    29    63    1
    67    29    64    1
    68    30    65    1
    69    31    66    1
    70    32    67    1
    71    33    68    1
    72    34    69    1
    73    35    70    1
    74    35    71    1
    75    35    72    1
    76    36    73    1
    77    36    74    1
    78    36    75    1
    79    37    76    1
    80    37    77    1
    81    38    78    1
    82    38    79    1
    83    39    80    1
    84    40    81    1
    85    41    82    1
    86    42    83    1
    87    43    84    1
    88    43    85    1
    89    44    86    1
    90    44    87    1
@<TRIPOS>MOLECULE
HTS1204-03362316-01
 87 90 0 0 0
SMALL
USER_CHARGES

@<TRIPOS>ATOM
      1 C1          0.0337   -3.0413   -0.5409 C.ar    1  UNK1       -0.0199
      2 N1         -0.4896   -5.1923   -0.2633 N.ar    1  UNK1       -0.3494
      3 C2         -5.1427   -0.2647    1.7998 C.2     1  UNK1        0.3028
      4 C3          0.2483   -4.1607    0.2420 C.ar    1  UNK1        0.0086
      5 C4          0.6683    0.7205    0.2725 C.2     1  UNK1        0.2342
      6 C5         -0.8184   -3.4528   -1.6168 C.ar    1  UNK1        0.0031
      7 C6         -2.2699   -1.2880    1.3448 C.2     1  UNK1        0.2340
      8 C7         -1.1311   -4.8023   -1.4172 C.ar    1  UNK1        0.0491
      9 N2         -4.4341   -1.1204    2.6072 N.am    1  UNK1       -0.2879
     10 N3         -6.5311   -0.3846    1.9210 N.am    1  UNK1       -0.2856
     11 N4         -1.0648   -0.6229    1.2423 N.am    1  UNK1       -0.3022
     12 N5          0.0183    1.7757    0.8990 N.am    1  UNK1       -0.3054
     13 C8         -0.2615   -0.5041    0.0098 C.3     1  UNK1        0.1034
     14 C9         -2.9689   -1.0572    2.7143 C.3     1  UNK1        0.1011
     15 C10         0.7271    3.0632    1.1557 C.3     1  UNK1        0.0680
     16 C11         0.6587   -1.6980   -0.3185 C.3     1  UNK1        0.0013
     17 C12         0.5609    4.0545   -0.0357 C.2     1  UNK1        0.0623
     18 C13         0.1102    3.7203    2.3969 C.3     1  UNK1        0.0133
     19 O1         -4.5922    0.5104    1.0269 O.2     1  UNK1       -0.2526
     20 O2         -2.7243   -2.0331    0.4840 O.2     1  UNK1       -0.2738
     21 O3          1.8604    0.7394   -0.0227 O.2     1  UNK1       -0.2738
     22 N6          0.1048    6.0668    3.0741 N.ar    1  UNK1       -0.2598
     23 O4         -0.5399    3.9252   -0.6557 O.co2   1  UNK1       -0.5479
     24 C14        -2.5456   -2.1343    3.7402 C.3     1  UNK1       -0.0236
     25 C15         0.8308    4.9275    2.9460 C.ar    1  UNK1        0.0434
     26 O5          1.5445    4.8121   -0.2679 O.co2   1  UNK1       -0.5479
     27 C16        -0.5762   -6.5041    0.3335 C.3     1  UNK1        0.0119
     28 C17        -7.1959   -1.1435    2.9895 C.3     1  UNK1        0.0161
     29 C18        -7.3635    0.2825    0.9217 C.3     1  UNK1        0.0161
     30 C19        -1.9662   -5.5161   -2.2922 C.ar    1  UNK1       -0.0376
     31 C20        -1.3610   -2.7974   -2.7419 C.ar    1  UNK1       -0.0523
     32 C21        -1.1337   -2.0175    4.3491 C.3     1  UNK1       -0.0446
     33 C22         0.7436    7.1654    3.5260 C.ar    1  UNK1        0.0279
     34 C23         2.1596    4.8481    3.3587 C.ar    1  UNK1       -0.0403
     35 C24        -0.0820   -2.7853    3.5500 C.3     1  UNK1       -0.0626
     36 C25        -1.1488   -2.5903    5.7736 C.3     1  UNK1       -0.0626
     37 C26        -8.7211   -1.2184    2.9290 C.3     1  UNK1       -0.0371
     38 C27        -8.0320   -0.6923   -0.0557 C.3     1  UNK1       -0.0371
     39 C28        -2.1953   -3.4992   -3.6195 C.ar    1  UNK1       -0.0611
     40 C29        -2.4926   -4.8398   -3.3957 C.ar    1  UNK1       -0.0598
     41 C30         2.0645    7.1764    3.9366 C.ar    1  UNK1       -0.0436
     42 C31         2.7794    5.9883    3.8649 C.ar    1  UNK1       -0.0586
     43 C32        -9.2615   -2.0532    1.7683 C.3     1  UNK1       -0.0516
     44 C33        -8.4121   -2.0651    0.5000 C.3     1  UNK1       -0.0516
     45 H           0.8566   -4.2861    1.1269 H       1  UNK1        0.0812
     46 H          -4.9066   -1.3719    3.4540 H       1  UNK1        0.1510
     47 H          -0.9162    0.1428    1.8918 H       1  UNK1        0.1495
     48 H          -0.9000    1.9646    0.4914 H       1  UNK1        0.1494
     49 H          -0.9329   -0.2735   -0.8241 H       1  UNK1        0.0598
     50 H          -2.7291   -0.0536    3.0851 H       1  UNK1        0.0595
     51 H           1.7902    2.8445    1.3045 H       1  UNK1        0.0564
     52 H           1.4048   -1.8013    0.4826 H       1  UNK1        0.0337
     53 H           1.2359   -1.4585   -1.2231 H       1  UNK1        0.0337
     54 H           0.0640    2.9804    3.2086 H       1  UNK1        0.0350
     55 H          -0.9348    3.9921    2.1932 H       1  UNK1        0.0350
     56 H          -2.6843   -3.1323    3.3026 H       1  UNK1        0.0290
     57 H          -3.2626   -2.0816    4.5721 H       1  UNK1        0.0290
     58 H          -0.0038   -6.5226    1.2648 H       1  UNK1        0.0456
     59 H          -0.1634   -7.2327   -0.3684 H       1  UNK1        0.0456
     60 H          -1.6264   -6.7207    0.5459 H       1  UNK1        0.0456
     61 H          -6.9112   -0.6588    3.9322 H       1  UNK1        0.0465
     62 H          -6.7833   -2.1588    3.0103 H       1  UNK1        0.0465
     63 H          -6.7724    0.9957    0.3358 H       1  UNK1        0.0465
     64 H          -8.1101    0.8928    1.4396 H       1  UNK1        0.0465
     65 H          -2.2086   -6.5580   -2.1175 H       1  UNK1        0.0638
     66 H          -1.1505   -1.7469   -2.9181 H       1  UNK1        0.0624
     67 H          -0.8414   -0.9629    4.4130 H       1  UNK1        0.0296
     68 H           0.1424    8.0683    3.5431 H       1  UNK1        0.0829
     69 H           2.7136    3.9193    3.2700 H       1  UNK1        0.0635
     70 H          -0.4023   -3.8150    3.3554 H       1  UNK1        0.0232
     71 H           0.8700   -2.8285    4.0903 H       1  UNK1        0.0232
     72 H           0.1252   -2.3078    2.5955 H       1  UNK1        0.0232
     73 H          -1.4579   -3.6419    5.7727 H       1  UNK1        0.0232
     74 H          -1.8425   -2.0331    6.4121 H       1  UNK1        0.0232
     75 H          -0.1562   -2.5293    6.2320 H       1  UNK1        0.0232
     76 H          -9.1566   -0.2134    2.8974 H       1  UNK1        0.0280
     77 H          -9.0887   -1.6581    3.8654 H       1  UNK1        0.0280
     78 H          -7.3472   -0.8615   -0.8970 H       1  UNK1        0.0280
     79 H          -8.9197   -0.2091   -0.4814 H       1  UNK1        0.0280
     80 H          -2.6229   -2.9824   -4.4741 H       1  UNK1        0.0618
     81 H          -3.1512   -5.3654   -4.0817 H       1  UNK1        0.0618
     82 H           2.5263    8.0900    4.2889 H       1  UNK1        0.0633
     83 H           3.8193    5.9517    4.1720 H       1  UNK1        0.0619
     84 H         -10.2772   -1.7148    1.5317 H       1  UNK1        0.0266
     85 H          -9.3631   -3.0922    2.1088 H       1  UNK1        0.0266
     86 H          -7.4985   -2.6454    0.6821 H       1  UNK1        0.0266
     87 H          -8.9553   -2.6187   -0.2757 H       1  UNK1        0.0266
@<TRIPOS>BOND
     1     2     4   ar
     2     3     9   am
     3     1     4   ar
     4     5    13    1
     5     1     6   ar
     6     7    11   am
     7     6     8   ar
     8     9    14    1
     9     3    10   am
    10    11    13    1
    11     5    12   am
    12    13    16    1
    13     7    14    1
    14    12    15    1
    15     1    16    1
    16    15    17    1
    17    15    18    1
    18     3    19    2
    19     7    20    2
    20     5    21    2
    21    22    25   ar
    22    17    23   ar
    23    14    24    1
    24    18    25    1
    25    17    26   ar
    26     2    27    1
    27    10    28    1
    28    10    29    1
    29     8    30   ar
    30     6    31   ar
    31    24    32    1
    32    22    33   ar
    33    25    34   ar
    34    32    35    1
    35    32    36    1
    36    28    37    1
    37    29    38    1
    38    31    39   ar
    39    39    40   ar
    40    41    42   ar
    41    34    42   ar
    42    37    43    1
    43    38    44    1
    44     2     8   ar
    45    30    40   ar
    46    33    41   ar
    47    43    44    1
    48     4    45    1
    49     9    46    1
    50    11    47    1
    51    12    48    1
    52    13    49    1
    53    14    50    1
    54    15    51    1
    55    16    52    1
    56    16    53    1
    57    18    54    1
    58    18    55    1
    59    24    56    1
    60    24    57    1
    61    27    58    1
    62    27    59    1
    63    27    60    1
    64    28    61    1
    65    28    62    1
    66    29    63    1
    67    29    64    1
    68    30    65    1
    69    31    66    1
    70    32    67    1
    71    33    68    1
    72    34    69    1
    73    35    70    1
    74    35    71    1
    75    35    72    1
    76    36    73    1
    77    36    74    1
    78    36    75    1
    79    37    76    1
    80    37    77    1
    81    38    78    1
    82    38    79    1
    83    39    80    1
    84    40    81    1
    85    41    82    1
    86    42    83    1
    87    43    84    1
    88    43    85    1
    89    44    86    1
    90    44    87    1
@<TRIPOS>MOLECULE
HTS1204-03362316-01
 87 90 0 0 0
SMALL
USER_CHARGES

@<TRIPOS>ATOM
      1 C1          1.5498   -1.8557    1.1511 C.ar    1  UNK1       -0.0199
      2 N1          3.4334   -2.1313    2.3211 N.ar    1  UNK1       -0.3494
      3 C2         -4.4993    1.7562    3.1028 C.2     1  UNK1        0.3028
      4 C3          2.9206   -1.6836    1.1381 C.ar    1  UNK1        0.0086
      5 C4          0.8098    1.0824    0.3031 C.2     1  UNK1        0.2342
      6 C5          1.2311   -2.4687    2.4079 C.ar    1  UNK1        0.0031
      7 C6         -2.4058    0.0683    1.2274 C.2     1  UNK1        0.2340
      8 C7          2.4220   -2.5946    3.1333 C.ar    1  UNK1        0.0491
      9 N2         -3.4667    0.8760    3.3190 N.am    1  UNK1       -0.2879
     10 N3         -4.4957    2.8447    3.9687 N.am    1  UNK1       -0.2856
     11 N4         -1.0601   -0.2118    1.3438 N.am    1  UNK1       -0.3022
     12 N5          0.2168    2.1959    0.8576 N.am    1  UNK1       -0.3054
     13 C8         -0.1322   -0.1357    0.2077 C.3     1  UNK1        0.1034
     14 C9         -3.2169   -0.3037    2.4843 C.3     1  UNK1        0.1011
     15 C10         0.9115    3.4937    1.0151 C.3     1  UNK1        0.0680
     16 C11         0.6230   -1.4685    0.0271 C.3     1  UNK1        0.0013
     17 C12         0.0688    4.6784    0.4603 C.2     1  UNK1        0.0623
     18 C13         1.0442    3.8908    2.4938 C.3     1  UNK1        0.0133
     19 O1         -5.3692    1.5927    2.2535 O.2     1  UNK1       -0.2526
     20 O2         -2.8990    0.5340    0.2075 O.2     1  UNK1       -0.2738
     21 O3          1.9424    1.0805   -0.1747 O.2     1  UNK1       -0.2738
     22 N6          3.0858    3.0149    3.5464 N.ar    1  UNK1       -0.2598
     23 O4         -1.1833    4.4633    0.4637 O.co2   1  UNK1       -0.5479
     24 C14        -4.4630   -1.1430    2.1379 C.3     1  UNK1       -0.0236
     25 C15         1.7550    2.8585    3.3385 C.ar    1  UNK1        0.0434
     26 O5          0.7097    5.7049    0.1036 O.co2   1  UNK1       -0.5479
     27 C16         4.8383   -2.1181    2.6578 C.3     1  UNK1        0.0119
     28 C17        -3.8083    2.8507    5.2640 C.3     1  UNK1        0.0161
     29 C18        -5.3448    3.9814    3.6306 C.3     1  UNK1        0.0161
     30 C19         2.4551   -3.1120    4.4390 C.ar    1  UNK1       -0.0376
     31 C20         0.0351   -2.9180    3.0073 C.ar    1  UNK1       -0.0523
     32 C21        -4.1538   -2.5674    1.6122 C.3     1  UNK1       -0.0446
     33 C22         3.7139    2.0616    4.2666 C.ar    1  UNK1        0.0279
     34 C23         1.0396    1.7852    3.8751 C.ar    1  UNK1       -0.0403
     35 C24        -3.7202   -2.5880    0.1425 C.3     1  UNK1       -0.0626
     36 C25        -5.3950   -3.4523    1.7650 C.3     1  UNK1       -0.0626
     37 C26        -4.3578    3.8341    6.3026 C.3     1  UNK1       -0.0371
     38 C27        -6.7161    3.9339    4.3077 C.3     1  UNK1       -0.0371
     39 C28         0.0540   -3.4257    4.3110 C.ar    1  UNK1       -0.0611
     40 C29         1.2490   -3.5138    5.0179 C.ar    1  UNK1       -0.0598
     41 C30         3.0795    0.9609    4.8170 C.ar    1  UNK1       -0.0436
     42 C31         1.7135    0.8245    4.6179 C.ar    1  UNK1       -0.0586
     43 C32        -5.8154    3.6110    6.7141 C.3     1  UNK1       -0.0516
     44 C33        -6.7811    3.1561    5.6218 C.3     1  UNK1       -0.0516
     45 H           3.5577   -1.2472    0.3774 H       1  UNK1        0.0812
     46 H          -2.6344    1.3666    3.6083 H       1  UNK1        0.1510
     47 H          -0.6349   -0.3140    2.2557 H       1  UNK1        0.1495
     48 H          -0.7912    2.3101    0.7315 H       1  UNK1        0.1494
     49 H          -0.7221    0.0231   -0.7039 H       1  UNK1        0.0598
     50 H          -2.5779   -0.9307    3.1195 H       1  UNK1        0.0595
     51 H           1.8903    3.4516    0.5259 H       1  UNK1        0.0564
     52 H           1.2029   -1.4274   -0.9047 H       1  UNK1        0.0337
     53 H          -0.1057   -2.2791   -0.1069 H       1  UNK1        0.0337
     54 H           0.0573    4.0752    2.9425 H       1  UNK1        0.0350
     55 H           1.5910    4.8395    2.5800 H       1  UNK1        0.0350
     56 H          -5.0881   -0.6299    1.3980 H       1  UNK1        0.0290
     57 H          -5.0677   -1.2307    3.0505 H       1  UNK1        0.0290
     58 H           5.4249   -1.8450    1.7765 H       1  UNK1        0.0456
     59 H           5.1274   -3.1188    2.9889 H       1  UNK1        0.0456
     60 H           4.9962   -1.3871    3.4539 H       1  UNK1        0.0456
     61 H          -2.7600    3.1011    5.0628 H       1  UNK1        0.0465
     62 H          -3.8279    1.8360    5.6787 H       1  UNK1        0.0465
     63 H          -5.4883    4.0257    2.5436 H       1  UNK1        0.0465
     64 H          -4.8103    4.9032    3.8847 H       1  UNK1        0.0465
     65 H           3.3862   -3.1944    4.9898 H       1  UNK1        0.0638
     66 H          -0.8999   -2.8689    2.4589 H       1  UNK1        0.0624
     67 H          -3.3553   -3.0116    2.2174 H       1  UNK1        0.0296
     68 H           4.7820    2.2136    4.3881 H       1  UNK1        0.0829
     69 H          -0.0246    1.6998    3.6893 H       1  UNK1        0.0635
     70 H          -4.4186   -2.0261   -0.4875 H       1  UNK1        0.0232
     71 H          -3.6771   -3.6139   -0.2390 H       1  UNK1        0.0232
     72 H          -2.7218   -2.1686    0.0074 H       1  UNK1        0.0232
     73 H          -6.2398   -3.0536    1.1926 H       1  UNK1        0.0232
     74 H          -5.6950   -3.5227    2.8152 H       1  UNK1        0.0232
     75 H          -5.1938   -4.4691    1.4106 H       1  UNK1        0.0232
     76 H          -4.2406    4.8636    5.9458 H       1  UNK1        0.0280
     77 H          -3.7357    3.7736    7.2051 H       1  UNK1        0.0280
     78 H          -7.4269    3.4663    3.6144 H       1  UNK1        0.0280
     79 H          -7.0750    4.9593    4.4585 H       1  UNK1        0.0280
     80 H          -0.8728   -3.7570    4.7722 H       1  UNK1        0.0618
     81 H           1.2483   -3.9095    6.0308 H       1  UNK1        0.0618
     82 H           3.6377    0.2227    5.3790 H       1  UNK1        0.0633
     83 H           1.1808   -0.0319    5.0216 H       1  UNK1        0.0619
     84 H          -6.1918    4.5393    7.1621 H       1  UNK1        0.0266
     85 H          -5.8426    2.8614    7.5158 H       1  UNK1        0.0266
     86 H          -6.6169    2.0901    5.4189 H       1  UNK1        0.0266
     87 H          -7.8042    3.2214    6.0143 H       1  UNK1        0.0266
@<TRIPOS>BOND
     1     2     4   ar
     2     3     9   am
     3     1     4   ar
     4     5    13    1
     5     1     6   ar
     6     7    11   am
     7     6     8   ar
     8     9    14    1
     9     3    10   am
    10    11    13    1
    11     5    12   am
    12    13    16    1
    13     7    14    1
    14    12    15    1
    15     1    16    1
    16    15    17    1
    17    15    18    1
    18     3    19    2
    19     7    20    2
    20     5    21    2
    21    22    25   ar
    22    17    23   ar
    23    14    24    1
    24    18    25    1
    25    17    26   ar
    26     2    27    1
    27    10    28    1
    28    10    29    1
    29     8    30   ar
    30     6    31   ar
    31    24    32    1
    32    22    33   ar
    33    25    34   ar
    34    32    35    1
    35    32    36    1
    36    28    37    1
    37    29    38    1
    38    31    39   ar
    39    39    40   ar
    40    41    42   ar
    41    34    42   ar
    42    37    43    1
    43    38    44    1
    44     2     8   ar
    45    30    40   ar
    46    33    41   ar
    47    43    44    1
    48     4    45    1
    49     9    46    1
    50    11    47    1
    51    12    48    1
    52    13    49    1
    53    14    50    1
    54    15    51    1
    55    16    52    1
    56    16    53    1
    57    18    54    1
    58    18    55    1
    59    24    56    1
    60    24    57    1
    61    27    58    1
    62    27    59    1
    63    27    60    1
    64    28    61    1
    65    28    62    1
    66    29    63    1
    67    29    64    1
    68    30    65    1
    69    31    66    1
    70    32    67    1
    71    33    68    1
    72    34    69    1
    73    35    70    1
    74    35    71    1
    75    35    72    1
    76    36    73    1
    77    36    74    1
    78    36    75    1
    79    37    76    1
    80    37    77    1
    81    38    78    1
    82    38    79    1
    83    39    80    1
    84    40    81    1
    85    41    82    1
    86    42    83    1
    87    43    84    1
    88    43    85    1
    89    44    86    1
    90    44    87    1
@<TRIPOS>MOLECULE
HTS1204-03362316-01
 87 90 0 0 0
SMALL
USER_CHARGES

@<TRIPOS>ATOM
      1 C1          0.1210   -3.1375    0.2926 C.ar    1  UNK1       -0.0199
      2 N1         -1.3448   -4.7931   -0.0625 N.ar    1  UNK1       -0.3494
      3 C2         -4.0531    1.9661   -0.7910 C.2     1  UNK1        0.3028
      4 C3         -1.2185   -3.4753    0.2826 C.ar    1  UNK1        0.0086
      5 C4          0.9026    0.6860    0.4470 C.2     1  UNK1        0.2342
      6 C5          0.8349   -4.3538    0.0024 C.ar    1  UNK1        0.0031
      7 C6         -2.5363   -0.1555    0.8787 C.2     1  UNK1        0.2340
      8 C7         -0.1042   -5.3690   -0.2063 C.ar    1  UNK1        0.0491
      9 N2         -4.3331    0.6623   -0.4551 N.am    1  UNK1       -0.2879
     10 N3         -5.0920    2.8533   -0.5449 N.am    1  UNK1       -0.2856
     11 N4         -1.2309   -0.3938    1.1274 N.am    1  UNK1       -0.3022
     12 N5          0.3781    1.7437    1.1440 N.am    1  UNK1       -0.3054
     13 C8         -0.0421   -0.5308    0.2724 C.3     1  UNK1        0.1034
     14 C9         -3.2786   -0.3570   -0.4764 C.3     1  UNK1        0.1011
     15 C10         1.1501    2.9350    1.5519 C.3     1  UNK1        0.0680
     16 C11         0.7587   -1.8054    0.6226 C.3     1  UNK1        0.0013
     17 C12         0.2573    4.0677    2.1532 C.2     1  UNK1        0.0623
     18 C13         2.3250    2.5922    2.4806 C.3     1  UNK1        0.0133
     19 O1         -2.9950    2.2980   -1.3134 O.2     1  UNK1       -0.2526
     20 O2         -3.2313    0.1037    1.8784 O.2     1  UNK1       -0.2738
     21 O3          2.0351    0.6929   -0.0379 O.2     1  UNK1       -0.2738
     22 N6          1.7278    0.5565    3.7376 N.ar    1  UNK1       -0.2598
     23 O4         -0.9664    4.0014    1.8200 O.co2   1  UNK1       -0.5479
     24 C14        -2.5353   -0.5264   -1.8063 C.3     1  UNK1       -0.0236
     25 C15         1.9531    1.8989    3.7751 C.ar    1  UNK1        0.0434
     26 O5          0.8368    4.9225    2.8814 O.co2   1  UNK1       -0.5479
     27 C16        -2.6065   -5.4808   -0.2171 C.3     1  UNK1        0.0119
     28 C17        -6.4319    2.4494   -0.1091 C.3     1  UNK1        0.0161
     29 C18        -4.8485    4.2636   -0.8248 C.3     1  UNK1        0.0161
     30 C19         0.2698   -6.6927   -0.4913 C.ar    1  UNK1       -0.0376
     31 C20         2.2053   -4.6839   -0.0798 C.ar    1  UNK1       -0.0523
     32 C21        -3.3600   -0.8521   -3.0760 C.3     1  UNK1       -0.0446
     33 C22         1.4508   -0.0590    4.9067 C.ar    1  UNK1        0.0279
     34 C23         1.9195    2.6208    4.9667 C.ar    1  UNK1       -0.0403
     35 C24        -4.1848    0.3137   -3.6170 C.3     1  UNK1       -0.0626
     36 C25        -4.2380   -2.0911   -2.9048 C.3     1  UNK1       -0.0626
     37 C26        -7.5434    3.4757   -0.3394 C.3     1  UNK1       -0.0371
     38 C27        -5.3679    4.6739   -2.2050 C.3     1  UNK1       -0.0371
     39 C28         2.5899   -6.0012   -0.3563 C.ar    1  UNK1       -0.0611
     40 C29         1.6331   -6.9904   -0.5583 C.ar    1  UNK1       -0.0598
     41 C30         1.4137    0.5846    6.1317 C.ar    1  UNK1       -0.0436
     42 C31         1.6553    1.9515    6.1586 C.ar    1  UNK1       -0.0586
     43 C32        -7.7915    3.8433   -1.8044 C.3     1  UNK1       -0.0516
     44 C33        -6.5708    3.8820   -2.7225 C.3     1  UNK1       -0.0516
     45 H          -2.0967   -2.8881    0.5012 H       1  UNK1        0.0812
     46 H          -4.8453    0.6337    0.4175 H       1  UNK1        0.1510
     47 H          -0.9979   -0.1509    2.0875 H       1  UNK1        0.1495
     48 H          -0.6300    1.8795    1.2140 H       1  UNK1        0.1494
     49 H          -0.3114   -0.5326   -0.7774 H       1  UNK1        0.0598
     50 H          -3.8197   -1.2987   -0.3098 H       1  UNK1        0.0595
     51 H           1.5677    3.3490    0.6244 H       1  UNK1        0.0564
     52 H           0.9966   -1.8053    1.6949 H       1  UNK1        0.0337
     53 H           1.7223   -1.7700    0.0977 H       1  UNK1        0.0337
     54 H           2.9043    3.4968    2.7076 H       1  UNK1        0.0350
     55 H           3.0319    1.9364    1.9576 H       1  UNK1        0.0350
     56 H          -1.8607   -1.3818   -1.6912 H       1  UNK1        0.0290
     57 H          -1.8940    0.3361   -2.0146 H       1  UNK1        0.0290
     58 H          -3.4244   -4.7557   -0.1931 H       1  UNK1        0.0456
     59 H          -2.7134   -6.1928    0.6048 H       1  UNK1        0.0456
     60 H          -2.6078   -5.9972   -1.1806 H       1  UNK1        0.0456
     61 H          -6.3606    2.2405    0.9653 H       1  UNK1        0.0465
     62 H          -6.7009    1.5098   -0.6056 H       1  UNK1        0.0465
     63 H          -3.7756    4.4843   -0.7706 H       1  UNK1        0.0465
     64 H          -5.3020    4.8667   -0.0318 H       1  UNK1        0.0465
     65 H          -0.4716   -7.4696   -0.6448 H       1  UNK1        0.0638
     66 H           2.9617   -3.9216    0.0851 H       1  UNK1        0.0624
     67 H          -2.6227   -1.0906   -3.8556 H       1  UNK1        0.0296
     68 H           1.2566   -1.1239    4.8290 H       1  UNK1        0.0829
     69 H           2.0916    3.6944    4.9617 H       1  UNK1        0.0635
     70 H          -5.0577    0.5256   -2.9942 H       1  UNK1        0.0232
     71 H          -4.5596    0.0786   -4.6195 H       1  UNK1        0.0232
     72 H          -3.5793    1.2212   -3.7025 H       1  UNK1        0.0232
     73 H          -5.0581   -1.9134   -2.2021 H       1  UNK1        0.0232
     74 H          -3.6488   -2.9391   -2.5409 H       1  UNK1        0.0232
     75 H          -4.6809   -2.3813   -3.8639 H       1  UNK1        0.0232
     76 H          -7.3421    4.3883    0.2330 H       1  UNK1        0.0280
     77 H          -8.4778    3.0799    0.0789 H       1  UNK1        0.0280
     78 H          -4.5554    4.5425   -2.9318 H       1  UNK1        0.0280
     79 H          -5.5971    5.7458   -2.1972 H       1  UNK1        0.0280
     80 H           3.6467   -6.2493   -0.4082 H       1  UNK1        0.0618
     81 H           1.9485   -8.0094   -0.7677 H       1  UNK1        0.0618
     82 H           1.1946    0.0366    7.0395 H       1  UNK1        0.0633
     83 H           1.6308    2.5012    7.0940 H       1  UNK1        0.0619
     84 H          -8.2990    4.8153   -1.8361 H       1  UNK1        0.0266
     85 H          -8.5018    3.1211   -2.2274 H       1  UNK1        0.0266
     86 H          -6.2576    2.8535   -2.9431 H       1  UNK1        0.0266
     87 H          -6.8758    4.3027   -3.6888 H       1  UNK1        0.0266
@<TRIPOS>BOND
     1     2     4   ar
     2     3     9   am
     3     1     4   ar
     4     5    13    1
     5     1     6   ar
     6     7    11   am
     7     6     8   ar
     8     9    14    1
     9     3    10   am
    10    11    13    1
    11     5    12   am
    12    13    16    1
    13     7    14    1
    14    12    15    1
    15     1    16    1
    16    15    17    1
    17    15    18    1
    18     3    19    2
    19     7    20    2
    20     5    21    2
    21    22    25   ar
    22    17    23   ar
    23    14    24    1
    24    18    25    1
    25    17    26   ar
    26     2    27    1
    27    10    28    1
    28    10    29    1
    29     8    30   ar
    30     6    31   ar
    31    24    32    1
    32    22    33   ar
    33    25    34   ar
    34    32    35    1
    35    32    36    1
    36    28    37    1
    37    29    38    1
    38    31    39   ar
    39    39    40   ar
    40    41    42   ar
    41    34    42   ar
    42    37    43    1
    43    38    44    1
    44     2     8   ar
    45    30    40   ar
    46    33    41   ar
    47    43    44    1
    48     4    45    1
    49     9    46    1
    50    11    47    1
    51    12    48    1
    52    13    49    1
    53    14    50    1
    54    15    51    1
    55    16    52    1
    56    16    53    1
    57    18    54    1
    58    18    55    1
    59    24    56    1
    60    24    57    1
    61    27    58    1
    62    27    59    1
    63    27    60    1
    64    28    61    1
    65    28    62    1
    66    29    63    1
    67    29    64    1
    68    30    65    1
    69    31    66    1
    70    32    67    1
    71    33    68    1
    72    34    69    1
    73    35    70    1
    74    35    71    1
    75    35    72    1
    76    36    73    1
    77    36    74    1
    78    36    75    1
    79    37    76    1
    80    37    77    1
    81    38    78    1
    82    38    79    1
    83    39    80    1
    84    40    81    1
    85    41    82    1
    86    42    83    1
    87    43    84    1
    88    43    85    1
    89    44    86    1
    90    44    87    1
@<TRIPOS>MOLECULE
HTS1204-03362316-01
 87 90 0 0 0
SMALL
USER_CHARGES

@<TRIPOS>ATOM
      1 C1          1.6295   -1.9136   -1.4633 C.ar    1  UNK1       -0.0199
      2 N1          3.2586   -1.6121   -2.9617 N.ar    1  UNK1       -0.3494
      3 C2         -5.1740    0.4465    1.9727 C.2     1  UNK1        0.3028
      4 C3          2.7943   -1.2209   -1.7397 C.ar    1  UNK1        0.0086
      5 C4          0.8696    0.8705   -0.4410 C.2     1  UNK1        0.2342
      6 C5          1.5002   -2.9003   -2.4981 C.ar    1  UNK1        0.0031
      7 C6         -2.2027   -0.6065    0.9823 C.2     1  UNK1        0.2340
      8 C7          2.5382   -2.6926   -3.4160 C.ar    1  UNK1        0.0491
      9 N2         -4.3178   -0.6134    2.1189 N.am    1  UNK1       -0.2879
     10 N3         -6.4686    0.0975    1.5898 N.am    1  UNK1       -0.2856
     11 N4         -0.8919   -0.2187    0.9068 N.am    1  UNK1       -0.3022
     12 N5          1.4407    1.2510    0.7678 N.am    1  UNK1       -0.3054
     13 C8         -0.0799   -0.3446   -0.3193 C.3     1  UNK1        0.1034
     14 C9         -2.8822   -0.4083    2.3642 C.3     1  UNK1        0.1011
     15 C10         2.5400    2.2483    0.7782 C.3     1  UNK1        0.0680
     16 C11         0.7296   -1.6656   -0.2801 C.3     1  UNK1        0.0013
     17 C12         2.0087    3.7030    0.9559 C.2     1  UNK1        0.0623
     18 C13         3.5860    1.9228    1.8507 C.3     1  UNK1        0.0133
     19 O1         -4.8322    1.6036    2.1838 O.2     1  UNK1       -0.2526
     20 O2         -2.7853   -1.1721    0.0532 O.2     1  UNK1       -0.2738
     21 O3          1.2396    1.2982   -1.5329 O.2     1  UNK1       -0.2738
     22 N6          2.6628    2.8618    3.9114 N.ar    1  UNK1       -0.2598
     23 O4          0.7790    3.7569    1.2796 O.co2   1  UNK1       -0.5479
     24 C14        -2.3905   -1.4910    3.3439 C.3     1  UNK1       -0.0236
     25 C15         3.0443    1.7471    3.2513 C.ar    1  UNK1        0.0434
     26 O5          2.8346    4.6253    0.7052 O.co2   1  UNK1       -0.5479
     27 C16         4.3235   -0.9485   -3.6784 C.3     1  UNK1        0.0119
     28 C17        -7.3973    1.2090    1.3524 C.3     1  UNK1        0.0161
     29 C18        -7.0001   -1.2671    1.5583 C.3     1  UNK1        0.0161
     30 C19         2.7010   -3.4842   -4.5642 C.ar    1  UNK1       -0.0376
     31 C20         0.5909   -3.9499   -2.7492 C.ar    1  UNK1       -0.0523
     32 C21        -1.1727   -1.1030    4.2073 C.3     1  UNK1       -0.0446
     33 C22         2.1437    2.7289    5.1466 C.ar    1  UNK1        0.0279
     34 C23         2.9653    0.4863    3.8402 C.ar    1  UNK1       -0.0403
     35 C24        -0.5710   -2.3632    4.8374 C.3     1  UNK1       -0.0626
     36 C25        -1.5535   -0.1103    5.3075 C.3     1  UNK1       -0.0626
     37 C26        -8.8749    0.8374    1.1985 C.3     1  UNK1       -0.0371
     38 C27        -7.7871   -1.6225    2.8191 C.3     1  UNK1       -0.0371
     39 C28         0.7557   -4.7584   -3.8819 C.ar    1  UNK1       -0.0611
     40 C29         1.7964   -4.5262   -4.7759 C.ar    1  UNK1       -0.0598
     41 C30         2.0329    1.5172    5.8013 C.ar    1  UNK1       -0.0436
     42 C31         2.4635    0.3758    5.1363 C.ar    1  UNK1       -0.0586
     43 C32        -9.5341    0.2465    2.4495 C.3     1  UNK1       -0.0516
     44 C33        -8.6188   -0.4924    3.4229 C.3     1  UNK1       -0.0516
     45 H           3.2654   -0.4027   -1.2081 H       1  UNK1        0.0812
     46 H          -4.4536   -1.2993    1.3899 H       1  UNK1        0.1510
     47 H          -0.4642    0.2431    1.6973 H       1  UNK1        0.1495
     48 H           0.7264    1.6517    1.3756 H       1  UNK1        0.1494
     49 H          -0.7520   -0.3321   -1.1854 H       1  UNK1        0.0598
     50 H          -2.6992    0.6074    2.7267 H       1  UNK1        0.0595
     51 H           3.0400    2.2125   -0.1981 H       1  UNK1        0.0564
     52 H           0.0303   -2.5055   -0.1775 H       1  UNK1        0.0337
     53 H           1.3503   -1.6886    0.6266 H       1  UNK1        0.0337
     54 H           4.3589    2.7004    1.8808 H       1  UNK1        0.0350
     55 H           4.1040    0.9985    1.5598 H       1  UNK1        0.0350
     56 H          -2.1520   -2.3997    2.7747 H       1  UNK1        0.0290
     57 H          -3.2089   -1.7716    4.0214 H       1  UNK1        0.0290
     58 H           4.6379   -0.0571   -3.1286 H       1  UNK1        0.0456
     59 H           3.9482   -0.6538   -4.6623 H       1  UNK1        0.0456
     60 H           5.1615   -1.6423   -3.7752 H       1  UNK1        0.0456
     61 H          -7.0599    1.6981    0.4299 H       1  UNK1        0.0465
     62 H          -7.2867    1.9455    2.1573 H       1  UNK1        0.0465
     63 H          -6.2074   -2.0100    1.4407 H       1  UNK1        0.0465
     64 H          -7.6155   -1.3835    0.6606 H       1  UNK1        0.0465
     65 H           3.5057   -3.2979   -5.2678 H       1  UNK1        0.0638
     66 H          -0.2305   -4.1371   -2.0647 H       1  UNK1        0.0624
     67 H          -0.3962   -0.6477    3.5859 H       1  UNK1        0.0296
     68 H           1.8099    3.6564    5.6016 H       1  UNK1        0.0829
     69 H           3.2908   -0.3973    3.3020 H       1  UNK1        0.0635
     70 H          -1.3004   -2.8795    5.4705 H       1  UNK1        0.0232
     71 H           0.2995   -2.1173    5.4539 H       1  UNK1        0.0232
     72 H          -0.2396   -3.0621    4.0617 H       1  UNK1        0.0232
     73 H          -2.3640   -0.5008    5.9324 H       1  UNK1        0.0232
     74 H          -1.8780    0.8459    4.8871 H       1  UNK1        0.0232
     75 H          -0.6999    0.0904    5.9633 H       1  UNK1        0.0232
     76 H          -9.0073    0.1473    0.3571 H       1  UNK1        0.0280
     77 H          -9.4349    1.7370    0.9120 H       1  UNK1        0.0280
     78 H          -7.0814   -1.9605    3.5890 H       1  UNK1        0.0280
     79 H          -8.4323   -2.4818    2.5994 H       1  UNK1        0.0280
     80 H           0.0589   -5.5717   -4.0651 H       1  UNK1        0.0618
     81 H           1.9061   -5.1574   -5.6540 H       1  UNK1        0.0618
     82 H           1.6171    1.4679    6.8000 H       1  UNK1        0.0633
     83 H           2.4009   -0.5942    5.6188 H       1  UNK1        0.0619
     84 H         -10.3489   -0.4183    2.1369 H       1  UNK1        0.0266
     85 H         -10.0128    1.0641    3.0039 H       1  UNK1        0.0266
     86 H          -7.9495    0.2299    3.9074 H       1  UNK1        0.0266
     87 H          -9.2318   -0.9080    4.2326 H       1  UNK1        0.0266
@<TRIPOS>BOND
     1     2     4   ar
     2     3     9   am
     3     1     4   ar
     4     5    13    1
     5     1     6   ar
     6     7    11   am
     7     6     8   ar
     8     9    14    1
     9     3    10   am
    10    11    13    1
    11     5    12   am
    12    13    16    1
    13     7    14    1
    14    12    15    1
    15     1    16    1
    16    15    17    1
    17    15    18    1
    18     3    19    2
    19     7    20    2
    20     5    21    2
    21    22    25   ar
    22    17    23   ar
    23    14    24    1
    24    18    25    1
    25    17    26   ar
    26     2    27    1
    27    10    28    1
    28    10    29    1
    29     8    30   ar
    30     6    31   ar
    31    24    32    1
    32    22    33   ar
    33    25    34   ar
    34    32    35    1
    35    32    36    1
    36    28    37    1
    37    29    38    1
    38    31    39   ar
    39    39    40   ar
    40    41    42   ar
    41    34    42   ar
    42    37    43    1
    43    38    44    1
    44     2     8   ar
    45    30    40   ar
    46    33    41   ar
    47    43    44    1
    48     4    45    1
    49     9    46    1
    50    11    47    1
    51    12    48    1
    52    13    49    1
    53    14    50    1
    54    15    51    1
    55    16    52    1
    56    16    53    1
    57    18    54    1
    58    18    55    1
    59    24    56    1
    60    24    57    1
    61    27    58    1
    62    27    59    1
    63    27    60    1
    64    28    61    1
    65    28    62    1
    66    29    63    1
    67    29    64    1
    68    30    65    1
    69    31    66    1
    70    32    67    1
    71    33    68    1
    72    34    69    1
    73    35    70    1
    74    35    71    1
    75    35    72    1
    76    36    73    1
    77    36    74    1
    78    36    75    1
    79    37    76    1
    80    37    77    1
    81    38    78    1
    82    38    79    1
    83    39    80    1
    84    40    81    1
    85    41    82    1
    86    42    83    1
    87    43    84    1
    88    43    85    1
    89    44    86    1
    90    44    87    1
@<TRIPOS>MOLECULE
HTS1204-03362316-01
 87 90 0 0 0
SMALL
USER_CHARGES

@<TRIPOS>ATOM
      1 C1         -0.0504   -3.3755   -0.4016 C.ar    1  UNK1       -0.0199
      2 N1         -0.7691   -5.4563   -0.0443 N.ar    1  UNK1       -0.3494
      3 C2         -2.6991   -2.9283    4.4991 C.2     1  UNK1        0.3028
      4 C3         -0.0219   -4.4410    0.4765 C.ar    1  UNK1        0.0086
      5 C4          0.4640    0.5297    0.0227 C.2     1  UNK1        0.2342
      6 C5         -0.8600   -3.7800   -1.5121 C.ar    1  UNK1        0.0031
      7 C6         -1.0976   -1.2769    2.2248 C.2     1  UNK1        0.2340
      8 C7         -1.3106   -5.0798   -1.2543 C.ar    1  UNK1        0.0491
      9 N2         -3.0610   -2.0023    3.5546 N.am    1  UNK1       -0.2879
     10 N3         -3.5884   -3.9938    4.6216 N.am    1  UNK1       -0.2856
     11 N4         -1.3040   -0.8575    0.9211 N.am    1  UNK1       -0.3022
     12 N5          1.7684    0.6072   -0.3860 N.am    1  UNK1       -0.3054
     13 C8         -0.2415   -0.8439   -0.1042 C.3     1  UNK1        0.1034
     14 C9         -2.2250   -0.8460    3.1907 C.3     1  UNK1        0.1011
     15 C10         2.5907    1.8294   -0.2364 C.3     1  UNK1        0.0680
     16 C11         0.6718   -2.0715   -0.2043 C.3     1  UNK1        0.0013
     17 C12         3.9413    1.5180    0.4780 C.2     1  UNK1        0.0623
     18 C13         3.0436    2.3897   -1.5923 C.3     1  UNK1        0.0133
     19 O1         -1.6980   -2.8397    5.1988 O.2     1  UNK1       -0.2526
     20 O2         -0.1582   -1.9804    2.5767 O.2     1  UNK1       -0.2738
     21 O3         -0.1937    1.5233    0.3571 O.2     1  UNK1       -0.2738
     22 N6          2.0557    2.4843   -3.8286 N.ar    1  UNK1       -0.2598
     23 O4          4.5744    2.5128    0.9271 O.co2   1  UNK1       -0.5479
     24 C14        -1.7164   -0.0131    4.3813 C.3     1  UNK1       -0.0236
     25 C15         1.9377    2.8397   -2.5207 C.ar    1  UNK1        0.0434
     26 O5          4.2234    0.2797    0.5175 O.co2   1  UNK1       -0.5479
     27 C16        -0.9433   -6.7445    0.5847 C.3     1  UNK1        0.0119
     28 C17        -4.9915   -3.9062    4.2096 C.3     1  UNK1        0.0161
     29 C18        -3.1621   -5.1328    5.4267 C.3     1  UNK1        0.0161
     30 C19        -2.1460   -5.7725   -2.1456 C.ar    1  UNK1       -0.0376
     31 C20        -1.2511   -3.1603   -2.7182 C.ar    1  UNK1       -0.0523
     32 C21        -1.1264    1.3568    3.9686 C.3     1  UNK1       -0.0446
     33 C22         1.1064    2.9156   -4.6850 C.ar    1  UNK1        0.0279
     34 C23         0.8924    3.6436   -2.0719 C.ar    1  UNK1       -0.0403
     35 C24         0.3828    1.2802    3.7161 C.3     1  UNK1       -0.0626
     36 C25        -1.3871    2.3977    5.0613 C.3     1  UNK1       -0.0626
     37 C26        -5.9451   -4.9029    4.8759 C.3     1  UNK1       -0.0371
     38 C27        -3.5732   -5.0309    6.8954 C.3     1  UNK1       -0.0371
     39 C28        -2.0881   -3.8394   -3.6102 C.ar    1  UNK1       -0.0611
     40 C29        -2.5299   -5.1270   -3.3243 C.ar    1  UNK1       -0.0598
     41 C30         0.0314    3.7020   -4.3130 C.ar    1  UNK1       -0.0436
     42 C31        -0.0743    4.0713   -2.9791 C.ar    1  UNK1       -0.0586
     43 C32        -6.0959   -4.7567    6.3935 C.3     1  UNK1       -0.0516
     44 C33        -4.8715   -4.2739    7.1676 C.3     1  UNK1       -0.0516
     45 H           0.4783   -4.5331    1.4338 H       1  UNK1        0.0812
     46 H          -3.5105   -2.4353    2.7637 H       1  UNK1        0.1510
     47 H          -1.9182   -0.0583    0.8218 H       1  UNK1        0.1495
     48 H           2.3704   -0.2098   -0.2746 H       1  UNK1        0.1494
     49 H          -0.7943   -0.7623   -1.0492 H       1  UNK1        0.0598
     50 H          -2.9257   -0.2084    2.6333 H       1  UNK1        0.0595
     51 H           2.0457    2.5704    0.3574 H       1  UNK1        0.0564
     52 H           1.3333   -2.1340    0.6679 H       1  UNK1        0.0337
     53 H           1.3434   -1.9505   -1.0650 H       1  UNK1        0.0337
     54 H           3.6419    1.6321   -2.1182 H       1  UNK1        0.0350
     55 H           3.7053    3.2541   -1.4476 H       1  UNK1        0.0350
     56 H          -0.9644   -0.5635    4.9568 H       1  UNK1        0.0290
     57 H          -2.5668    0.1475    5.0577 H       1  UNK1        0.0290
     58 H          -0.4028   -6.7671    1.5347 H       1  UNK1        0.0456
     59 H          -0.5437   -7.5117   -0.0837 H       1  UNK1        0.0456
     60 H          -2.0097   -6.9027    0.7628 H       1  UNK1        0.0456
     61 H          -5.0100   -4.0752    3.1264 H       1  UNK1        0.0465
     62 H          -5.3493   -2.8844    4.3857 H       1  UNK1        0.0465
     63 H          -2.0712   -5.2353    5.3737 H       1  UNK1        0.0465
     64 H          -3.5529   -6.0488    4.9705 H       1  UNK1        0.0465
     65 H          -2.4845   -6.7807   -1.9336 H       1  UNK1        0.0638
     66 H          -0.9035   -2.1604   -2.9605 H       1  UNK1        0.0624
     67 H          -1.6175    1.7090    3.0531 H       1  UNK1        0.0296
     68 H           1.2427    2.6014   -5.7149 H       1  UNK1        0.0829
     69 H           0.8200    3.9298   -1.0273 H       1  UNK1        0.0635
     70 H           0.9213    0.9788    4.6212 H       1  UNK1        0.0232
     71 H           0.7718    2.2554    3.4034 H       1  UNK1        0.0232
     72 H           0.6332    0.5668    2.9299 H       1  UNK1        0.0232
     73 H          -0.9314    2.0990    6.0114 H       1  UNK1        0.0232
     74 H          -2.4618    2.5294    5.2243 H       1  UNK1        0.0232
     75 H          -0.9735    3.3714    4.7770 H       1  UNK1        0.0232
     76 H          -5.6415   -5.9298    4.6415 H       1  UNK1        0.0280
     77 H          -6.9390   -4.7922    4.4238 H       1  UNK1        0.0280
     78 H          -2.7726   -4.5211    7.4469 H       1  UNK1        0.0280
     79 H          -3.6322   -6.0414    7.3178 H       1  UNK1        0.0280
     80 H          -2.3883   -3.3542   -4.5350 H       1  UNK1        0.0618
     81 H          -3.1762   -5.6422   -4.0302 H       1  UNK1        0.0618
     82 H          -0.7019    4.0199   -5.0433 H       1  UNK1        0.0633
     83 H          -0.9000    4.6880   -2.6388 H       1  UNK1        0.0619
     84 H          -6.4271   -5.7191    6.8036 H       1  UNK1        0.0266
     85 H          -6.9124   -4.0511    6.5944 H       1  UNK1        0.0266
     86 H          -4.7161   -3.2065    6.9657 H       1  UNK1        0.0266
     87 H          -5.0911   -4.3372    8.2411 H       1  UNK1        0.0266
@<TRIPOS>BOND
     1     2     4   ar
     2     3     9   am
     3     1     4   ar
     4     5    13    1
     5     1     6   ar
     6     7    11   am
     7     6     8   ar
     8     9    14    1
     9     3    10   am
    10    11    13    1
    11     5    12   am
    12    13    16    1
    13     7    14    1
    14    12    15    1
    15     1    16    1
    16    15    17    1
    17    15    18    1
    18     3    19    2
    19     7    20    2
    20     5    21    2
    21    22    25   ar
    22    17    23   ar
    23    14    24    1
    24    18    25    1
    25    17    26   ar
    26     2    27    1
    27    10    28    1
    28    10    29    1
    29     8    30   ar
    30     6    31   ar
    31    24    32    1
    32    22    33   ar
    33    25    34   ar
    34    32    35    1
    35    32    36    1
    36    28    37    1
    37    29    38    1
    38    31    39   ar
    39    39    40   ar
    40    41    42   ar
    41    34    42   ar
    42    37    43    1
    43    38    44    1
    44     2     8   ar
    45    30    40   ar
    46    33    41   ar
    47    43    44    1
    48     4    45    1
    49     9    46    1
    50    11    47    1
    51    12    48    1
    52    13    49    1
    53    14    50    1
    54    15    51    1
    55    16    52    1
    56    16    53    1
    57    18    54    1
    58    18    55    1
    59    24    56    1
    60    24    57    1
    61    27    58    1
    62    27    59    1
    63    27    60    1
    64    28    61    1
    65    28    62    1
    66    29    63    1
    67    29    64    1
    68    30    65    1
    69    31    66    1
    70    32    67    1
    71    33    68    1
    72    34    69    1
    73    35    70    1
    74    35    71    1
    75    35    72    1
    76    36    73    1
    77    36    74    1
    78    36    75    1
    79    37    76    1
    80    37    77    1
    81    38    78    1
    82    38    79    1
    83    39    80    1
    84    40    81    1
    85    41    82    1
    86    42    83    1
    87    43    84    1
    88    43    85    1
    89    44    86    1
    90    44    87    1
@<TRIPOS>MOLECULE
HTS1204-03362316-01
 87 90 0 0 0
SMALL
USER_CHARGES

@<TRIPOS>ATOM
      1 C1          1.6354   -1.8911    1.0457 C.ar    1  UNK1       -0.0199
      2 N1          3.5906   -1.9405    2.1210 N.ar    1  UNK1       -0.3494
      3 C2         -4.4328    1.9100    3.1034 C.2     1  UNK1        0.3028
      4 C3          2.9824   -1.6019    0.9449 C.ar    1  UNK1        0.0086
      5 C4          0.5668    0.8896    0.3025 C.2     1  UNK1        0.2342
      6 C5          1.4330   -2.4492    2.3502 C.ar    1  UNK1        0.0031
      7 C6         -2.4097    0.0453    1.2924 C.2     1  UNK1        0.2340
      8 C7          2.6618   -2.4243    3.0173 C.ar    1  UNK1        0.0491
      9 N2         -3.4324    1.0113    3.3577 N.am    1  UNK1       -0.2879
     10 N3         -4.4496    2.9919    3.9815 N.am    1  UNK1       -0.2856
     11 N4         -1.1531   -0.5323    1.3031 N.am    1  UNK1       -0.3022
     12 N5          1.1538    1.3105   -0.8642 N.am    1  UNK1       -0.3054
     13 C8         -0.2594   -0.4010    0.1493 C.3     1  UNK1        0.1034
     14 C9         -3.2033   -0.2166    2.5914 C.3     1  UNK1        0.1011
     15 C10         2.0432    2.4822   -0.9712 C.3     1  UNK1        0.0680
     16 C11         0.6183   -1.6511   -0.0344 C.3     1  UNK1        0.0013
     17 C12         3.3235    2.1395   -1.7944 C.2     1  UNK1        0.0623
     18 C13         1.3814    3.6393   -1.7399 C.3     1  UNK1        0.0133
     19 O1         -5.2690    1.7771    2.2176 O.2     1  UNK1       -0.2526
     20 O2         -2.8621    0.6565    0.3312 O.2     1  UNK1       -0.2738
     21 O3          0.6633    1.4775    1.3800 O.2     1  UNK1       -0.2738
     22 N6         -0.9186    4.3820   -2.1279 N.ar    1  UNK1       -0.2598
     23 O4          3.2754    1.0117   -2.3813 O.co2   1  UNK1       -0.5479
     24 C14        -4.4669   -1.0401    2.2699 C.3     1  UNK1       -0.0236
     25 C15         0.0459    4.1154   -1.2067 C.ar    1  UNK1        0.0434
     26 O5          4.2537    2.9918   -1.7599 O.co2   1  UNK1       -0.5479
     27 C16         5.0080   -1.8151    2.3733 C.3     1  UNK1        0.0119
     28 C17        -3.8162    2.9482    5.3043 C.3     1  UNK1        0.0161
     29 C18        -5.3471    4.1003    3.6751 C.3     1  UNK1        0.0161
     30 C19         2.7982   -2.8443    4.3511 C.ar    1  UNK1       -0.0376
     31 C20         0.3096   -2.9583    3.0357 C.ar    1  UNK1       -0.0523
     32 C21        -4.1582   -2.4706    1.7700 C.3     1  UNK1       -0.0446
     33 C22        -2.1332    4.7581   -1.6708 C.ar    1  UNK1        0.0279
     34 C23        -0.1765    4.2958    0.1571 C.ar    1  UNK1       -0.0403
     35 C24        -5.3812   -3.0610    1.0645 C.3     1  UNK1       -0.0626
     36 C25        -3.7281   -3.3941    2.9099 C.3     1  UNK1       -0.0626
     37 C26        -4.3927    3.9048    6.3520 C.3     1  UNK1       -0.0371
     38 C27        -6.7312    3.9572    4.3103 C.3     1  UNK1       -0.0371
     39 C28         0.4303   -3.3706    4.3670 C.ar    1  UNK1       -0.0611
     40 C29         1.6586   -3.3053    5.0165 C.ar    1  UNK1       -0.0598
     41 C30        -2.4419    4.9180   -0.3319 C.ar    1  UNK1       -0.0436
     42 C31        -1.4385    4.6879    0.5976 C.ar    1  UNK1       -0.0586
     43 C32        -5.8568    3.6592    6.7280 C.3     1  UNK1       -0.0516
     44 C33        -6.7828    3.1677    5.6175 C.3     1  UNK1       -0.0516
     45 H           3.5453   -1.1685    0.1238 H       1  UNK1        0.0812
     46 H          -2.5834    1.4698    3.6536 H       1  UNK1        0.1510
     47 H          -0.6642   -0.5215    2.1917 H       1  UNK1        0.1495
     48 H           1.3259    0.6504   -1.6207 H       1  UNK1        0.1494
     49 H          -0.8832   -0.2896   -0.7466 H       1  UNK1        0.0598
     50 H          -2.5700   -0.8093    3.2613 H       1  UNK1        0.0595
     51 H           2.3482    2.7926    0.0338 H       1  UNK1        0.0564
     52 H           1.1429   -1.5844   -0.9965 H       1  UNK1        0.0337
     53 H          -0.0270   -2.5370   -0.1035 H       1  UNK1        0.0337
     54 H           1.2354    3.3389   -2.7873 H       1  UNK1        0.0350
     55 H           2.0505    4.5091   -1.7616 H       1  UNK1        0.0350
     56 H          -5.0429   -0.5262    1.4908 H       1  UNK1        0.0290
     57 H          -5.1131   -1.0914    3.1551 H       1  UNK1        0.0290
     58 H           5.5231   -1.5377    1.4500 H       1  UNK1        0.0456
     59 H           5.3849   -2.7806    2.7225 H       1  UNK1        0.0456
     60 H           5.1569   -1.0448    3.1334 H       1  UNK1        0.0456
     61 H          -2.7581    3.1894    5.1510 H       1  UNK1        0.0465
     62 H          -3.8648    1.9221    5.6883 H       1  UNK1        0.0465
     63 H          -5.4655    4.1874    2.5877 H       1  UNK1        0.0465
     64 H          -4.8659    5.0347    3.9830 H       1  UNK1        0.0465
     65 H           3.7558   -2.8047    4.8594 H       1  UNK1        0.0638
     66 H          -0.6486   -3.0225    2.5314 H       1  UNK1        0.0624
     67 H          -3.3476   -2.4356    1.0325 H       1  UNK1        0.0296
     68 H          -2.8812    4.9252   -2.4392 H       1  UNK1        0.0829
     69 H           0.6061    4.0896    0.8798 H       1  UNK1        0.0635
     70 H          -6.2379   -3.1303    1.7425 H       1  UNK1        0.0232
     71 H          -5.1627   -4.0652    0.6855 H       1  UNK1        0.0232
     72 H          -5.6722   -2.4416    0.2092 H       1  UNK1        0.0232
     73 H          -4.5371   -3.5329    3.6345 H       1  UNK1        0.0232
     74 H          -2.8625   -2.9993    3.4468 H       1  UNK1        0.0232
     75 H          -3.4512   -4.3799    2.5205 H       1  UNK1        0.0232
     76 H          -4.2743    4.9432    6.0222 H       1  UNK1        0.0280
     77 H          -3.7895    3.8264    7.2656 H       1  UNK1        0.0280
     78 H          -7.3911    3.4503    3.5943 H       1  UNK1        0.0280
     79 H          -7.1594    4.9561    4.4576 H       1  UNK1        0.0280
     80 H          -0.4432   -3.7426    4.8955 H       1  UNK1        0.0618
     81 H           1.7376   -3.6225    6.0533 H       1  UNK1        0.0618
     82 H          -3.4408    5.1984   -0.0219 H       1  UNK1        0.0633
     83 H          -1.6375    4.7833    1.6598 H       1  UNK1        0.0619
     84 H          -6.2640    4.5844    7.1549 H       1  UNK1        0.0266
     85 H          -5.8890    2.9185    7.5375 H       1  UNK1        0.0266
     86 H          -6.5668    2.1118    5.4104 H       1  UNK1        0.0266
     87 H          -7.8141    3.1839    5.9927 H       1  UNK1        0.0266
@<TRIPOS>BOND
     1     2     4   ar
     2     3     9   am
     3     1     4   ar
     4     5    13    1
     5     1     6   ar
     6     7    11   am
     7     6     8   ar
     8     9    14    1
     9     3    10   am
    10    11    13    1
    11     5    12   am
    12    13    16    1
    13     7    14    1
    14    12    15    1
    15     1    16    1
    16    15    17    1
    17    15    18    1
    18     3    19    2
    19     7    20    2
    20     5    21    2
    21    22    25   ar
    22    17    23   ar
    23    14    24    1
    24    18    25    1
    25    17    26   ar
    26     2    27    1
    27    10    28    1
    28    10    29    1
    29     8    30   ar
    30     6    31   ar
    31    24    32    1
    32    22    33   ar
    33    25    34   ar
    34    32    35    1
    35    32    36    1
    36    28    37    1
    37    29    38    1
    38    31    39   ar
    39    39    40   ar
    40    41    42   ar
    41    34    42   ar
    42    37    43    1
    43    38    44    1
    44     2     8   ar
    45    30    40   ar
    46    33    41   ar
    47    43    44    1
    48     4    45    1
    49     9    46    1
    50    11    47    1
    51    12    48    1
    52    13    49    1
    53    14    50    1
    54    15    51    1
    55    16    52    1
    56    16    53    1
    57    18    54    1
    58    18    55    1
    59    24    56    1
    60    24    57    1
    61    27    58    1
    62    27    59    1
    63    27    60    1
    64    28    61    1
    65    28    62    1
    66    29    63    1
    67    29    64    1
    68    30    65    1
    69    31    66    1
    70    32    67    1
    71    33    68    1
    72    34    69    1
    73    35    70    1
    74    35    71    1
    75    35    72    1
    76    36    73    1
    77    36    74    1
    78    36    75    1
    79    37    76    1
    80    37    77    1
    81    38    78    1
    82    38    79    1
    83    39    80    1
    84    40    81    1
    85    41    82    1
    86    42    83    1
    87    43    84    1
    88    43    85    1
    89    44    86    1
    90    44    87    1
@<TRIPOS>MOLECULE
HTS1204-03362316-01
 87 90 0 0 0
SMALL
USER_CHARGES

@<TRIPOS>ATOM
      1 C1          1.5057   -2.1945    1.1112 C.ar    1  UNK1       -0.0199
      2 N1          3.3829   -2.3606    2.3063 N.ar    1  UNK1       -0.3494
      3 C2         -4.3499    1.9753    3.0615 C.2     1  UNK1        0.3028
      4 C3          2.8782   -2.0528    1.0741 C.ar    1  UNK1        0.0086
      5 C4          0.8942    0.7015    0.1208 C.2     1  UNK1        0.2342
      6 C5          1.1833   -2.7017    2.4129 C.ar    1  UNK1        0.0031
      7 C6         -2.2442    0.1879    1.2635 C.2     1  UNK1        0.2340
      8 C7          2.3689   -2.7455    3.1539 C.ar    1  UNK1        0.0491
      9 N2         -3.3504    1.0696    3.3088 N.am    1  UNK1       -0.2879
     10 N3         -4.4035    3.0202    3.9802 N.am    1  UNK1       -0.2856
     11 N4         -1.0102   -0.4330    1.2978 N.am    1  UNK1       -0.3022
     12 N5          1.4141    1.0113    1.3512 N.am    1  UNK1       -0.3054
     13 C8         -0.1211   -0.4581    0.1316 C.3     1  UNK1        0.1034
     14 C9         -3.1045   -0.1269    2.5044 C.3     1  UNK1        0.1011
     15 C10         2.2344    2.1975    1.6600 C.3     1  UNK1        0.0680
     16 C11         0.5714   -1.8291   -0.0081 C.3     1  UNK1        0.0013
     17 C12         1.7809    2.7947    3.0409 C.2     1  UNK1        0.0623
     18 C13         3.7322    1.8735    1.8114 C.3     1  UNK1        0.0133
     19 O1         -5.1639    1.8649    2.1511 O.2     1  UNK1       -0.2526
     20 O2         -2.6332    0.8512    0.3102 O.2     1  UNK1       -0.2738
     21 O3          1.2958    1.1868   -0.9352 O.2     1  UNK1       -0.2738
     22 N6          5.4421    0.4256    0.8138 N.ar    1  UNK1       -0.2598
     23 O4          0.8442    2.1331    3.6021 O.co2   1  UNK1       -0.5479
     24 C14        -4.3701   -0.9330    2.1319 C.3     1  UNK1       -0.0236
     25 C15         4.4682    1.3544    0.5930 C.ar    1  UNK1        0.0434
     26 O5          2.3640    3.8448    3.4239 O.co2   1  UNK1       -0.5479
     27 C16         4.7804   -2.2592    2.6615 C.3     1  UNK1        0.0119
     28 C17        -3.7425    2.9719    5.2912 C.3     1  UNK1        0.0161
     29 C18        -5.3025    4.1310    3.6966 C.3     1  UNK1        0.0161
     30 C19         2.3907   -3.1066    4.5110 C.ar    1  UNK1       -0.0376
     31 C20        -0.0178   -3.0826    3.0494 C.ar    1  UNK1       -0.0523
     32 C21        -4.0994   -2.3612    1.5988 C.3     1  UNK1       -0.0446
     33 C22         6.1193   -0.0427   -0.2578 C.ar    1  UNK1        0.0279
     34 C23         4.2211    1.8510   -0.6846 C.ar    1  UNK1       -0.0403
     35 C24        -3.7950   -2.3912    0.0967 C.3     1  UNK1       -0.0626
     36 C25        -5.3177   -3.2542    1.8587 C.3     1  UNK1       -0.0626
     37 C26        -4.3264    3.8977    6.3625 C.3     1  UNK1       -0.0371
     38 C27        -6.6810    3.9708    4.3402 C.3     1  UNK1       -0.0371
     39 C28        -0.0087   -3.4401    4.4022 C.ar    1  UNK1       -0.0611
     40 C29         1.1808   -3.4426    5.1235 C.ar    1  UNK1       -0.0598
     41 C30         5.8912    0.3650   -1.5581 C.ar    1  UNK1       -0.0436
     42 C31         4.9251    1.3350   -1.7708 C.ar    1  UNK1       -0.0586
     43 C32        -5.7848    3.6262    6.7448 C.3     1  UNK1       -0.0516
     44 C33        -6.7177    3.1539    5.6314 C.3     1  UNK1       -0.0516
     45 H           3.5228   -1.6847    0.2857 H       1  UNK1        0.0812
     46 H          -2.5068    1.5119    3.6581 H       1  UNK1        0.1510
     47 H          -0.5933   -0.6208    2.2031 H       1  UNK1        0.1495
     48 H           0.8835    0.7412    2.1767 H       1  UNK1        0.1494
     49 H          -0.7499   -0.3118   -0.7558 H       1  UNK1        0.0598
     50 H          -2.5109   -0.7620    3.1758 H       1  UNK1        0.0595
     51 H           2.0567    2.9569    0.8900 H       1  UNK1        0.0564
     52 H           1.1316   -1.8472   -0.9519 H       1  UNK1        0.0337
     53 H          -0.1936   -2.6122   -0.0890 H       1  UNK1        0.0337
     54 H           3.8547    1.1369    2.6177 H       1  UNK1        0.0350
     55 H           4.2778    2.7704    2.1322 H       1  UNK1        0.0350
     56 H          -4.9690   -0.3956    1.3874 H       1  UNK1        0.0290
     57 H          -4.9893   -1.0044    3.0351 H       1  UNK1        0.0290
     58 H           5.3877   -2.2910    1.7533 H       1  UNK1        0.0456
     59 H           5.0505   -3.1095    3.2927 H       1  UNK1        0.0456
     60 H           4.9324   -1.3189    3.1953 H       1  UNK1        0.0456
     61 H          -2.6934    3.2416    5.1239 H       1  UNK1        0.0465
     62 H          -3.7607    1.9391    5.6596 H       1  UNK1        0.0465
     63 H          -5.4306    4.2365    2.6123 H       1  UNK1        0.0465
     64 H          -4.8220    5.0612    4.0167 H       1  UNK1        0.0465
     65 H           3.3136   -3.1019    5.0811 H       1  UNK1        0.0638
     66 H          -0.9507   -3.0774    2.4985 H       1  UNK1        0.0624
     67 H          -3.2516   -2.7971    2.1383 H       1  UNK1        0.0296
     68 H           6.8722   -0.7924   -0.0335 H       1  UNK1        0.0829
     69 H           3.4612    2.6070   -0.8521 H       1  UNK1        0.0635
     70 H          -4.5901   -1.9061   -0.4805 H       1  UNK1        0.0232
     71 H          -3.7040   -3.4224   -0.2613 H       1  UNK1        0.0232
     72 H          -2.8542   -1.8953   -0.1449 H       1  UNK1        0.0232
     73 H          -6.2079   -2.8687    1.3510 H       1  UNK1        0.0232
     74 H          -5.5333   -3.3168    2.9299 H       1  UNK1        0.0232
     75 H          -5.1360   -4.2733    1.4981 H       1  UNK1        0.0232
     76 H          -4.2259    4.9437    6.0533 H       1  UNK1        0.0280
     77 H          -3.7158    3.8104    7.2706 H       1  UNK1        0.0280
     78 H          -7.3444    3.4751    3.6196 H       1  UNK1        0.0280
     79 H          -7.1117    4.9645    4.5107 H       1  UNK1        0.0280
     80 H          -0.9398   -3.7019    4.8960 H       1  UNK1        0.0618
     81 H           1.1720   -3.7011    6.1788 H       1  UNK1        0.0618
     82 H           6.4493   -0.0619   -2.3835 H       1  UNK1        0.0633
     83 H           4.7013    1.6871   -2.7737 H       1  UNK1        0.0619
     84 H          -6.1980    4.5368    7.1983 H       1  UNK1        0.0266
     85 H          -5.8030    2.8659    7.5363 H       1  UNK1        0.0266
     86 H          -6.4986    2.1038    5.4010 H       1  UNK1        0.0266
     87 H          -7.7466    3.1578    6.0151 H       1  UNK1        0.0266
@<TRIPOS>BOND
     1     2     4   ar
     2     3     9   am
     3     1     4   ar
     4     5    13    1
     5     1     6   ar
     6     7    11   am
     7     6     8   ar
     8     9    14    1
     9     3    10   am
    10    11    13    1
    11     5    12   am
    12    13    16    1
    13     7    14    1
    14    12    15    1
    15     1    16    1
    16    15    17    1
    17    15    18    1
    18     3    19    2
    19     7    20    2
    20     5    21    2
    21    22    25   ar
    22    17    23   ar
    23    14    24    1
    24    18    25    1
    25    17    26   ar
    26     2    27    1
    27    10    28    1
    28    10    29    1
    29     8    30   ar
    30     6    31   ar
    31    24    32    1
    32    22    33   ar
    33    25    34   ar
    34    32    35    1
    35    32    36    1
    36    28    37    1
    37    29    38    1
    38    31    39   ar
    39    39    40   ar
    40    41    42   ar
    41    34    42   ar
    42    37    43    1
    43    38    44    1
    44     2     8   ar
    45    30    40   ar
    46    33    41   ar
    47    43    44    1
    48     4    45    1
    49     9    46    1
    50    11    47    1
    51    12    48    1
    52    13    49    1
    53    14    50    1
    54    15    51    1
    55    16    52    1
    56    16    53    1
    57    18    54    1
    58    18    55    1
    59    24    56    1
    60    24    57    1
    61    27    58    1
    62    27    59    1
    63    27    60    1
    64    28    61    1
    65    28    62    1
    66    29    63    1
    67    29    64    1
    68    30    65    1
    69    31    66    1
    70    32    67    1
    71    33    68    1
    72    34    69    1
    73    35    70    1
    74    35    71    1
    75    35    72    1
    76    36    73    1
    77    36    74    1
    78    36    75    1
    79    37    76    1
    80    37    77    1
    81    38    78    1
    82    38    79    1
    83    39    80    1
    84    40    81    1
    85    41    82    1
    86    42    83    1
    87    43    84    1
    88    43    85    1
    89    44    86    1
    90    44    87    1
@<TRIPOS>MOLECULE
HTS1204-03362316-01
 87 90 0 0 0
SMALL
USER_CHARGES

@<TRIPOS>ATOM
      1 C1          1.5999   -1.9506    1.1546 C.ar    1  UNK1       -0.0199
      2 N1          3.5037   -2.1014    2.3090 N.ar    1  UNK1       -0.3494
      3 C2         -4.4069    1.9464    3.0688 C.2     1  UNK1        0.3028
      4 C3          2.9639   -1.7470    1.1057 C.ar    1  UNK1        0.0086
      5 C4          0.8301    0.9195    0.3192 C.2     1  UNK1        0.2342
      6 C5          1.3127   -2.4917    2.4506 C.ar    1  UNK1        0.0031
      7 C6         -2.2905    0.2112    1.2502 C.2     1  UNK1        0.2340
      8 C7          2.5154   -2.5396    3.1641 C.ar    1  UNK1        0.0491
      9 N2         -3.4124    1.0340    3.3153 N.am    1  UNK1       -0.2879
     10 N3         -4.4508    2.9882    3.9966 N.am    1  UNK1       -0.2856
     11 N4         -1.0352   -0.3607    1.3057 N.am    1  UNK1       -0.3022
     12 N5          1.6487    1.1292   -0.7659 N.am    1  UNK1       -0.3054
     13 C8         -0.1007   -0.3032    0.1774 C.3     1  UNK1        0.1034
     14 C9         -3.1500   -0.1410    2.4815 C.3     1  UNK1        0.1011
     15 C10         2.6514    2.2116   -0.8346 C.3     1  UNK1        0.0680
     16 C11         0.6457   -1.6420    0.0379 C.3     1  UNK1        0.0013
     17 C12         4.0869    1.6512   -1.0656 C.2     1  UNK1        0.0623
     18 C13         2.4164    3.1243   -2.0504 C.3     1  UNK1        0.0133
     19 O1         -5.2093    1.8553    2.1498 O.2     1  UNK1       -0.2526
     20 O2         -2.6949    0.8721    0.3012 O.2     1  UNK1       -0.2738
     21 O3          0.7776    1.6708    1.2951 O.2     1  UNK1       -0.2738
     22 N6          0.5348    3.7688   -3.4733 N.ar    1  UNK1       -0.2598
     23 O4          4.1160    0.4493   -1.4849 O.co2   1  UNK1       -0.5479
     24 C14        -4.3975   -0.9604    2.0907 C.3     1  UNK1       -0.0236
     25 C15         1.0156    3.6813   -2.2032 C.ar    1  UNK1        0.0434
     26 O5          5.0403    2.4335   -0.8024 O.co2   1  UNK1       -0.5479
     27 C16         4.9121   -2.0185    2.6216 C.3     1  UNK1        0.0119
     28 C17        -3.8335    2.9023    5.3263 C.3     1  UNK1        0.0161
     29 C18        -5.3370    4.1101    3.7111 C.3     1  UNK1        0.0161
     30 C19         2.5768   -2.9714    4.4990 C.ar    1  UNK1       -0.0376
     31 C20         0.1342   -2.9278    3.0939 C.ar    1  UNK1       -0.0523
     32 C21        -4.0880   -2.3760    1.5422 C.3     1  UNK1       -0.0446
     33 C22        -0.7257    4.2263   -3.6361 C.ar    1  UNK1        0.0279
     34 C23         0.2648    4.1000   -1.1068 C.ar    1  UNK1       -0.0403
     35 C24        -3.7602   -2.3793    0.0451 C.3     1  UNK1       -0.0626
     36 C25        -5.2889   -3.2987    1.7755 C.3     1  UNK1       -0.0626
     37 C26        -4.3980    3.8511    6.3877 C.3     1  UNK1       -0.0371
     38 C27        -6.7280    3.9570    4.3280 C.3     1  UNK1       -0.0371
     39 C28         0.1823   -3.3529    4.4255 C.ar    1  UNK1       -0.0611
     40 C29         1.3882   -3.3675    5.1184 C.ar    1  UNK1       -0.0598
     41 C30        -1.5436    4.6265   -2.5955 C.ar    1  UNK1       -0.0436
     42 C31        -1.0335    4.5636   -1.3068 C.ar    1  UNK1       -0.0586
     43 C32        -5.8702    3.6319    6.7481 C.3     1  UNK1       -0.0516
     44 C33        -6.7925    3.1563    5.6275 C.3     1  UNK1       -0.0516
     45 H           3.5874   -1.3530    0.3088 H       1  UNK1        0.0812
     46 H          -2.5784    1.4707    3.6789 H       1  UNK1        0.1510
     47 H          -0.5838   -0.3980    2.2135 H       1  UNK1        0.1495
     48 H           1.9458    0.3326   -1.3244 H       1  UNK1        0.1494
     49 H          -0.6906   -0.1460   -0.7349 H       1  UNK1        0.0598
     50 H          -2.5465   -0.7804    3.1400 H       1  UNK1        0.0595
     51 H           2.6384    2.7826    0.0999 H       1  UNK1        0.0564
     52 H           1.1957   -1.6607   -0.9115 H       1  UNK1        0.0337
     53 H          -0.0869   -2.4578   -0.0277 H       1  UNK1        0.0337
     54 H           2.6540    2.5729   -2.9711 H       1  UNK1        0.0350
     55 H           3.1066    3.9769   -2.0159 H       1  UNK1        0.0350
     56 H          -5.0022   -0.4233    1.3506 H       1  UNK1        0.0290
     57 H          -5.0211   -1.0570    2.9895 H       1  UNK1        0.0290
     58 H           5.4751   -1.7594    1.7213 H       1  UNK1        0.0456
     59 H           5.2436   -2.9934    2.9895 H       1  UNK1        0.0456
     60 H           5.0512   -1.2495    3.3851 H       1  UNK1        0.0456
     61 H          -2.7681    3.1223    5.1904 H       1  UNK1        0.0465
     62 H          -3.9097    1.8692    5.6856 H       1  UNK1        0.0465
     63 H          -5.4446    4.2287    2.6258 H       1  UNK1        0.0465
     64 H          -4.8538    5.0325    4.0492 H       1  UNK1        0.0465
     65 H           3.5163   -2.9909    5.0415 H       1  UNK1        0.0638
     66 H          -0.8100   -2.9286    2.5583 H       1  UNK1        0.0624
     67 H          -3.2365   -2.8007    2.0879 H       1  UNK1        0.0296
     68 H          -1.0739    4.2552   -4.6635 H       1  UNK1        0.0829
     69 H           0.6610    4.0323   -0.0985 H       1  UNK1        0.0635
     70 H          -4.5528   -1.8949   -0.5365 H       1  UNK1        0.0232
     71 H          -3.6520   -3.4041   -0.3267 H       1  UNK1        0.0232
     72 H          -2.8216   -1.8701   -0.1741 H       1  UNK1        0.0232
     73 H          -6.1816   -2.9251    1.2611 H       1  UNK1        0.0232
     74 H          -5.5172   -3.3790    2.8430 H       1  UNK1        0.0232
     75 H          -5.0813   -4.3081    1.4050 H       1  UNK1        0.0232
     76 H          -4.2531    4.8925    6.0787 H       1  UNK1        0.0280
     77 H          -3.8039    3.7425    7.3044 H       1  UNK1        0.0280
     78 H          -7.3773    3.4543    3.6000 H       1  UNK1        0.0280
     79 H          -7.1600    4.9534    4.4791 H       1  UNK1        0.0280
     80 H          -0.7309   -3.6737    4.9206 H       1  UNK1        0.0618
     81 H           1.4111   -3.6964    6.1547 H       1  UNK1        0.0618
     82 H          -2.5547    4.9670   -2.7808 H       1  UNK1        0.0633
     83 H          -1.6442    4.8486   -0.4559 H       1  UNK1        0.0619
     84 H          -6.2655    4.5639    7.1711 H       1  UNK1        0.0266
     85 H          -5.9236    2.8918    7.5566 H       1  UNK1        0.0266
     86 H          -6.5815    2.1009    5.4125 H       1  UNK1        0.0266
     87 H          -7.8257    3.1759    5.9964 H       1  UNK1        0.0266
@<TRIPOS>BOND
     1     2     4   ar
     2     3     9   am
     3     1     4   ar
     4     5    13    1
     5     1     6   ar
     6     7    11   am
     7     6     8   ar
     8     9    14    1
     9     3    10   am
    10    11    13    1
    11     5    12   am
    12    13    16    1
    13     7    14    1
    14    12    15    1
    15     1    16    1
    16    15    17    1
    17    15    18    1
    18     3    19    2
    19     7    20    2
    20     5    21    2
    21    22    25   ar
    22    17    23   ar
    23    14    24    1
    24    18    25    1
    25    17    26   ar
    26     2    27    1
    27    10    28    1
    28    10    29    1
    29     8    30   ar
    30     6    31   ar
    31    24    32    1
    32    22    33   ar
    33    25    34   ar
    34    32    35    1
    35    32    36    1
    36    28    37    1
    37    29    38    1
    38    31    39   ar
    39    39    40   ar
    40    41    42   ar
    41    34    42   ar
    42    37    43    1
    43    38    44    1
    44     2     8   ar
    45    30    40   ar
    46    33    41   ar
    47    43    44    1
    48     4    45    1
    49     9    46    1
    50    11    47    1
    51    12    48    1
    52    13    49    1
    53    14    50    1
    54    15    51    1
    55    16    52    1
    56    16    53    1
    57    18    54    1
    58    18    55    1
    59    24    56    1
    60    24    57    1
    61    27    58    1
    62    27    59    1
    63    27    60    1
    64    28    61    1
    65    28    62    1
    66    29    63    1
    67    29    64    1
    68    30    65    1
    69    31    66    1
    70    32    67    1
    71    33    68    1
    72    34    69    1
    73    35    70    1
    74    35    71    1
    75    35    72    1
    76    36    73    1
    77    36    74    1
    78    36    75    1
    79    37    76    1
    80    37    77    1
    81    38    78    1
    82    38    79    1
    83    39    80    1
    84    40    81    1
    85    41    82    1
    86    42    83    1
    87    43    84    1
    88    43    85    1
    89    44    86    1
    90    44    87    1
@<TRIPOS>MOLECULE
HTS1204-03362316-01
 87 90 0 0 0
SMALL
USER_CHARGES

@<TRIPOS>ATOM
      1 C1          1.9492   -2.1434    1.1456 C.ar    1  UNK1       -0.0199
      2 N1          3.1671   -2.0351    3.0167 N.ar    1  UNK1       -0.3494
      3 C2         -1.9073    1.2066   -1.9172 C.2     1  UNK1        0.3028
      4 C3          2.1502   -1.4462    2.3176 C.ar    1  UNK1        0.0086
      5 C4          0.8340    0.7103    0.3484 C.2     1  UNK1        0.2342
      6 C5          2.8670   -3.2462    1.1748 C.ar    1  UNK1        0.0031
      7 C6         -2.3388   -0.7570    0.9859 C.2     1  UNK1        0.2340
      8 C7          3.6162   -3.1535    2.3514 C.ar    1  UNK1        0.0491
      9 N2         -2.7458    0.8664   -0.8955 N.am    1  UNK1       -0.2879
     10 N3         -1.7876    2.5684   -2.1364 N.am    1  UNK1       -0.2856
     11 N4         -0.9886   -0.8523    1.1244 N.am    1  UNK1       -0.3022
     12 N5          0.1821    1.6072    1.1501 N.am    1  UNK1       -0.3054
     13 C8          0.0810   -0.6210    0.1469 C.3     1  UNK1        0.1034
     14 C9         -3.0365   -0.4731   -0.3762 C.3     1  UNK1        0.1011
     15 C10         0.7038    2.9229    1.5532 C.3     1  UNK1        0.0680
     16 C11         1.0236   -1.8235    0.0061 C.3     1  UNK1        0.0013
     17 C12        -0.4002    3.8984    2.0636 C.2     1  UNK1        0.0623
     18 C13         1.8548    2.8157    2.5646 C.3     1  UNK1        0.0133
     19 O1         -1.3119    0.3874   -2.6113 O.2     1  UNK1       -0.2526
     20 O2         -3.0254   -0.9921    1.9886 O.2     1  UNK1       -0.2738
     21 O3          1.8877    0.9733   -0.2338 O.2     1  UNK1       -0.2738
     22 N6          0.6778    1.2492    4.0802 N.ar    1  UNK1       -0.2598
     23 O4         -1.5930    3.5072    1.8587 O.co2   1  UNK1       -0.5479
     24 C14        -2.9243   -1.7004   -1.3081 C.3     1  UNK1       -0.0236
     25 C15         1.5029    2.3194    3.9549 C.ar    1  UNK1        0.0434
     26 O5          0.0096    4.9852    2.5656 O.co2   1  UNK1       -0.5479
     27 C16         3.7094   -1.5124    4.2499 C.3     1  UNK1        0.0119
     28 C17        -2.7535    3.5633   -1.6546 C.3     1  UNK1        0.0161
     29 C18        -0.7024    3.0268   -2.9915 C.3     1  UNK1        0.0161
     30 C19         4.6258   -4.0762    2.6680 C.ar    1  UNK1       -0.0376
     31 C20         3.1408   -4.3027    0.2804 C.ar    1  UNK1       -0.0523
     32 C21        -4.0069   -1.9102   -2.3927 C.3     1  UNK1       -0.0446
     33 C22         0.4245    0.7892    5.3240 C.ar    1  UNK1        0.0279
     34 C23         2.1300    2.8900    5.0628 C.ar    1  UNK1       -0.0403
     35 C24        -3.8705   -0.9803   -3.5949 C.3     1  UNK1       -0.0626
     36 C25        -5.4323   -1.8592   -1.8451 C.3     1  UNK1       -0.0626
     37 C26        -2.8195    4.8583   -2.4709 C.3     1  UNK1       -0.0371
     38 C27        -1.1310    3.1840   -4.4513 C.3     1  UNK1       -0.0371
     39 C28         4.1439   -5.2278    0.5858 C.ar    1  UNK1       -0.0611
     40 C29         4.8756   -5.1130    1.7638 C.ar    1  UNK1       -0.0598
     41 C30         1.0029    1.3053    6.4695 C.ar    1  UNK1       -0.0436
     42 C31         1.8777    2.3740    6.3321 C.ar    1  UNK1       -0.0586
     43 C32        -3.1791    4.6914   -3.9504 C.3     1  UNK1       -0.0516
     44 C33        -2.6173    3.4675   -4.6726 C.3     1  UNK1       -0.0516
     45 H           1.6897   -0.5426    2.6904 H       1  UNK1        0.0812
     46 H          -2.8100    1.5965   -0.1911 H       1  UNK1        0.1510
     47 H          -0.6888   -0.9593    2.0874 H       1  UNK1        0.1495
     48 H          -0.6957    1.3672    1.5999 H       1  UNK1        0.1494
     49 H          -0.3928   -0.5310   -0.8185 H       1  UNK1        0.0598
     50 H          -4.0921   -0.3821   -0.0892 H       1  UNK1        0.0595
     51 H           1.1101    3.3739    0.6379 H       1  UNK1        0.0564
     52 H           1.6473   -1.6715   -0.8854 H       1  UNK1        0.0337
     53 H           0.4141   -2.7165   -0.1904 H       1  UNK1        0.0337
     54 H           2.3300    3.8016    2.6524 H       1  UNK1        0.0350
     55 H           2.6302    2.1435    2.1750 H       1  UNK1        0.0350
     56 H          -2.9688   -2.5931   -0.6661 H       1  UNK1        0.0290
     57 H          -1.9378   -1.7593   -1.7774 H       1  UNK1        0.0290
     58 H           3.3541   -0.4905    4.4037 H       1  UNK1        0.0456
     59 H           4.8003   -1.5062    4.1815 H       1  UNK1        0.0456
     60 H           3.3763   -2.1540    5.0690 H       1  UNK1        0.0456
     61 H          -2.4721    3.8087   -0.6264 H       1  UNK1        0.0465
     62 H          -3.7492    3.1055   -1.6245 H       1  UNK1        0.0465
     63 H           0.1347    2.3190   -2.9411 H       1  UNK1        0.0465
     64 H          -0.3055    3.9642   -2.5879 H       1  UNK1        0.0465
     65 H           5.2059   -3.9871    3.5799 H       1  UNK1        0.0638
     66 H           2.5799   -4.3916   -0.6450 H       1  UNK1        0.0624
     67 H          -3.8529   -2.9294   -2.7749 H       1  UNK1        0.0296
     68 H          -0.2772   -0.0381    5.3724 H       1  UNK1        0.0829
     69 H           2.8011    3.7342    4.9396 H       1  UNK1        0.0635
     70 H          -4.0652    0.0620   -3.3295 H       1  UNK1        0.0232
     71 H          -4.5859   -1.2588   -4.3770 H       1  UNK1        0.0232
     72 H          -2.8714   -1.0556   -4.0353 H       1  UNK1        0.0232
     73 H          -5.7256   -0.8415   -1.5691 H       1  UNK1        0.0232
     74 H          -5.5387   -2.5036   -0.9668 H       1  UNK1        0.0232
     75 H          -6.1430   -2.2097   -2.6021 H       1  UNK1        0.0232
     76 H          -1.8688    5.3985   -2.3942 H       1  UNK1        0.0280
     77 H          -3.5612    5.5237   -2.0108 H       1  UNK1        0.0280
     78 H          -0.8926    2.2533   -4.9827 H       1  UNK1        0.0280
     79 H          -0.5212    3.9640   -4.9222 H       1  UNK1        0.0280
     80 H           4.3546   -6.0361   -0.1088 H       1  UNK1        0.0618
     81 H           5.6576   -5.8353    1.9826 H       1  UNK1        0.0618
     82 H           0.7683    0.8919    7.4426 H       1  UNK1        0.0633
     83 H           2.3508    2.8159    7.2031 H       1  UNK1        0.0619
     84 H          -2.8611    5.5965   -4.4833 H       1  UNK1        0.0266
     85 H          -4.2722    4.6595   -4.0435 H       1  UNK1        0.0266
     86 H          -3.2005    2.5833   -4.3845 H       1  UNK1        0.0266
     87 H          -2.7918    3.5886   -5.7493 H       1  UNK1        0.0266
@<TRIPOS>BOND
     1     2     4   ar
     2     3     9   am
     3     1     4   ar
     4     5    13    1
     5     1     6   ar
     6     7    11   am
     7     6     8   ar
     8     9    14    1
     9     3    10   am
    10    11    13    1
    11     5    12   am
    12    13    16    1
    13     7    14    1
    14    12    15    1
    15     1    16    1
    16    15    17    1
    17    15    18    1
    18     3    19    2
    19     7    20    2
    20     5    21    2
    21    22    25   ar
    22    17    23   ar
    23    14    24    1
    24    18    25    1
    25    17    26   ar
    26     2    27    1
    27    10    28    1
    28    10    29    1
    29     8    30   ar
    30     6    31   ar
    31    24    32    1
    32    22    33   ar
    33    25    34   ar
    34    32    35    1
    35    32    36    1
    36    28    37    1
    37    29    38    1
    38    31    39   ar
    39    39    40   ar
    40    41    42   ar
    41    34    42   ar
    42    37    43    1
    43    38    44    1
    44     2     8   ar
    45    30    40   ar
    46    33    41   ar
    47    43    44    1
    48     4    45    1
    49     9    46    1
    50    11    47    1
    51    12    48    1
    52    13    49    1
    53    14    50    1
    54    15    51    1
    55    16    52    1
    56    16    53    1
    57    18    54    1
    58    18    55    1
    59    24    56    1
    60    24    57    1
    61    27    58    1
    62    27    59    1
    63    27    60    1
    64    28    61    1
    65    28    62    1
    66    29    63    1
    67    29    64    1
    68    30    65    1
    69    31    66    1
    70    32    67    1
    71    33    68    1
    72    34    69    1
    73    35    70    1
    74    35    71    1
    75    35    72    1
    76    36    73    1
    77    36    74    1
    78    36    75    1
    79    37    76    1
    80    37    77    1
    81    38    78    1
    82    38    79    1
    83    39    80    1
    84    40    81    1
    85    41    82    1
    86    42    83    1
    87    43    84    1
    88    43    85    1
    89    44    86    1
    90    44    87    1
@<TRIPOS>MOLECULE
HTS1204-03362316-01
 87 90 0 0 0
SMALL
USER_CHARGES

@<TRIPOS>ATOM
      1 C1          0.0253   -2.9699   -0.2472 C.ar    1  UNK1       -0.0199
      2 N1         -0.6936   -5.0492    0.1255 N.ar    1  UNK1       -0.3494
      3 C2         -4.3294    1.8380    3.0918 C.2     1  UNK1        0.3028
      4 C3          0.0119   -4.0096    0.6646 C.ar    1  UNK1        0.0086
      5 C4          0.7176    0.8927    0.0910 C.2     1  UNK1        0.2342
      6 C5         -0.7265   -3.4079   -1.3831 C.ar    1  UNK1        0.0031
      7 C6         -2.2503    0.0813    1.2540 C.2     1  UNK1        0.2340
      8 C7         -1.1679   -4.7095   -1.1223 C.ar    1  UNK1        0.0491
      9 N2         -3.3286    0.9304    3.3415 N.am    1  UNK1       -0.2879
     10 N3         -4.3681    2.8966    3.9987 N.am    1  UNK1       -0.2856
     11 N4         -0.9847   -0.4843    1.2485 N.am    1  UNK1       -0.3022
     12 N5          2.0316    0.7577    0.4602 N.am    1  UNK1       -0.3054
     13 C8         -0.1177   -0.4144    0.0678 C.3     1  UNK1        0.1034
     14 C9         -3.0721   -0.2591    2.5163 C.3     1  UNK1        0.1011
     15 C10         2.9825    1.8808    0.5934 C.3     1  UNK1        0.0680
     16 C11         0.7631   -1.6714   -0.0823 C.3     1  UNK1        0.0013
     17 C12         3.8786    1.6781    1.8583 C.2     1  UNK1        0.0623
     18 C13         3.9663    1.9494   -0.5866 C.3     1  UNK1        0.0133
     19 O1         -5.1458    1.7327    2.1847 O.2     1  UNK1       -0.2526
     20 O2         -2.6901    0.7573    0.3297 O.2     1  UNK1       -0.2738
     21 O3          0.2119    1.9925   -0.1356 O.2     1  UNK1       -0.2738
     22 N6          3.8826    1.3010   -2.9480 N.ar    1  UNK1       -0.2598
     23 O4          3.6828    0.5630    2.4438 O.co2   1  UNK1       -0.5479
     24 C14        -4.3312   -1.0903    2.1902 C.3     1  UNK1       -0.0236
     25 C15         3.3536    2.0801   -1.9654 C.ar    1  UNK1        0.0434
     26 O5          4.6541    2.6245    2.1602 O.co2   1  UNK1       -0.5479
     27 C16        -0.8799   -6.3330    0.7621 C.3     1  UNK1        0.0119
     28 C17        -3.7574    2.8328    5.3320 C.3     1  UNK1        0.0161
     29 C18        -5.2453    4.0196    3.6874 C.3     1  UNK1        0.0161
     30 C19        -1.9385   -5.4365   -2.0441 C.ar    1  UNK1       -0.0376
     31 C20        -1.0656   -2.8159   -2.6174 C.ar    1  UNK1       -0.0523
     32 C21        -4.0498   -2.4537    1.5155 C.3     1  UNK1       -0.0446
     33 C22         3.3579    1.4125   -4.1880 C.ar    1  UNK1        0.0279
     34 C23         2.3338    2.9920   -2.2269 C.ar    1  UNK1       -0.0403
     35 C24        -4.0044   -2.3421   -0.0123 C.3     1  UNK1       -0.0626
     36 C25        -5.1444   -3.4581    1.8901 C.3     1  UNK1       -0.0626
     37 C26        -4.3280    3.8005    6.3740 C.3     1  UNK1       -0.0371
     38 C27        -6.6415    3.8898    4.2979 C.3     1  UNK1       -0.0371
     39 C28        -1.8403   -3.5282   -3.5389 C.ar    1  UNK1       -0.0611
     40 C29        -2.2694   -4.8206   -3.2541 C.ar    1  UNK1       -0.0598
     41 C30         2.3265    2.2730   -4.5177 C.ar    1  UNK1       -0.0436
     42 C31         1.8060    3.0764   -3.5136 C.ar    1  UNK1       -0.0586
     43 C32        -5.8036    3.5925    6.7279 C.3     1  UNK1       -0.0516
     44 C33        -6.7221    3.1086    5.6083 C.3     1  UNK1       -0.0516
     45 H           0.4800   -4.0928    1.6374 H       1  UNK1        0.0812
     46 H          -2.4921    1.3806    3.6827 H       1  UNK1        0.1510
     47 H          -0.5577   -0.7684    2.1193 H       1  UNK1        0.1495
     48 H           2.3151    0.0070    1.0891 H       1  UNK1        0.1494
     49 H          -0.7585   -0.3368   -0.8193 H       1  UNK1        0.0598
     50 H          -2.4423   -0.8831    3.1643 H       1  UNK1        0.0595
     51 H           2.4235    2.8151    0.7091 H       1  UNK1        0.0564
     52 H           1.4080   -1.7803    0.7996 H       1  UNK1        0.0337
     53 H           1.4358   -1.5490   -0.9415 H       1  UNK1        0.0337
     54 H           4.5967    1.0489   -0.5829 H       1  UNK1        0.0350
     55 H           4.6495    2.7995   -0.4599 H       1  UNK1        0.0350
     56 H          -5.0198   -0.5276    1.5514 H       1  UNK1        0.0290
     57 H          -4.8620   -1.2576    3.1371 H       1  UNK1        0.0290
     58 H          -0.3576   -6.3469    1.7222 H       1  UNK1        0.0456
     59 H          -0.4669   -7.1068    0.1093 H       1  UNK1        0.0456
     60 H          -1.9499   -6.4888    0.9195 H       1  UNK1        0.0456
     61 H          -2.6915    3.0506    5.1979 H       1  UNK1        0.0465
     62 H          -3.8355    1.8057    5.7085 H       1  UNK1        0.0465
     63 H          -5.3449    4.1189    2.5995 H       1  UNK1        0.0465
     64 H          -4.7570    4.9446    4.0114 H       1  UNK1        0.0465
     65 H          -2.2746   -6.4452   -1.8300 H       1  UNK1        0.0638
     66 H          -0.7386   -1.8066   -2.8511 H       1  UNK1        0.0624
     67 H          -3.0931   -2.8542    1.8719 H       1  UNK1        0.0296
     68 H           3.8064    0.7652   -4.9350 H       1  UNK1        0.0829
     69 H           1.9230    3.6109   -1.4348 H       1  UNK1        0.0635
     70 H          -4.9164   -1.8801   -0.4058 H       1  UNK1        0.0232
     71 H          -3.9112   -3.3313   -0.4711 H       1  UNK1        0.0232
     72 H          -3.1554   -1.7497   -0.3549 H       1  UNK1        0.0232
     73 H          -6.1301   -3.1113    1.5610 H       1  UNK1        0.0232
     74 H          -5.1796   -3.6102    2.9736 H       1  UNK1        0.0232
     75 H          -4.9544   -4.4315    1.4246 H       1  UNK1        0.0232
     76 H          -4.1788    4.8363    6.0486 H       1  UNK1        0.0280
     77 H          -3.7411    3.7068    7.2967 H       1  UNK1        0.0280
     78 H          -7.2923    3.3839    3.5730 H       1  UNK1        0.0280
     79 H          -7.0648    4.8928    4.4318 H       1  UNK1        0.0280
     80 H          -2.1092   -3.0615   -4.4828 H       1  UNK1        0.0618
     81 H          -2.8710   -5.3588   -3.9819 H       1  UNK1        0.0618
     82 H           1.9359    2.3132   -5.5269 H       1  UNK1        0.0633
     83 H           0.9867    3.7590   -3.7169 H       1  UNK1        0.0619
     84 H          -6.1969    4.5316    7.1375 H       1  UNK1        0.0266
     85 H          -5.8659    2.8625    7.5454 H       1  UNK1        0.0266
     86 H          -6.5188    2.0487    5.4097 H       1  UNK1        0.0266
     87 H          -7.7580    3.1423    5.9694 H       1  UNK1        0.0266
@<TRIPOS>BOND
     1     2     4   ar
     2     3     9   am
     3     1     4   ar
     4     5    13    1
     5     1     6   ar
     6     7    11   am
     7     6     8   ar
     8     9    14    1
     9     3    10   am
    10    11    13    1
    11     5    12   am
    12    13    16    1
    13     7    14    1
    14    12    15    1
    15     1    16    1
    16    15    17    1
    17    15    18    1
    18     3    19    2
    19     7    20    2
    20     5    21    2
    21    22    25   ar
    22    17    23   ar
    23    14    24    1
    24    18    25    1
    25    17    26   ar
    26     2    27    1
    27    10    28    1
    28    10    29    1
    29     8    30   ar
    30     6    31   ar
    31    24    32    1
    32    22    33   ar
    33    25    34   ar
    34    32    35    1
    35    32    36    1
    36    28    37    1
    37    29    38    1
    38    31    39   ar
    39    39    40   ar
    40    41    42   ar
    41    34    42   ar
    42    37    43    1
    43    38    44    1
    44     2     8   ar
    45    30    40   ar
    46    33    41   ar
    47    43    44    1
    48     4    45    1
    49     9    46    1
    50    11    47    1
    51    12    48    1
    52    13    49    1
    53    14    50    1
    54    15    51    1
    55    16    52    1
    56    16    53    1
    57    18    54    1
    58    18    55    1
    59    24    56    1
    60    24    57    1
    61    27    58    1
    62    27    59    1
    63    27    60    1
    64    28    61    1
    65    28    62    1
    66    29    63    1
    67    29    64    1
    68    30    65    1
    69    31    66    1
    70    32    67    1
    71    33    68    1
    72    34    69    1
    73    35    70    1
    74    35    71    1
    75    35    72    1
    76    36    73    1
    77    36    74    1
    78    36    75    1
    79    37    76    1
    80    37    77    1
    81    38    78    1
    82    38    79    1
    83    39    80    1
    84    40    81    1
    85    41    82    1
    86    42    83    1
    87    43    84    1
    88    43    85    1
    89    44    86    1
    90    44    87    1
@<TRIPOS>MOLECULE
HTS1204-03362316-01
 87 90 0 0 0
SMALL
USER_CHARGES

@<TRIPOS>ATOM
      1 C1          0.0324   -2.9694   -0.2531 C.ar    1  UNK1       -0.0199
      2 N1         -0.6923   -5.0460    0.1236 N.ar    1  UNK1       -0.3494
      3 C2         -4.3191    1.8468    3.0864 C.2     1  UNK1        0.3028
      4 C3          0.0176   -4.0079    0.6601 C.ar    1  UNK1        0.0086
      5 C4          0.7366    0.8909    0.0820 C.2     1  UNK1        0.2342
      6 C5         -0.7233   -3.4066   -1.3868 C.ar    1  UNK1        0.0031
      7 C6         -2.2299    0.0921    1.2485 C.2     1  UNK1        0.2340
      8 C7         -1.1678   -4.7066   -1.1237 C.ar    1  UNK1        0.0491
      9 N2         -3.3106    0.9502    3.3326 N.am    1  UNK1       -0.2879
     10 N3         -4.3980    2.8833    4.0143 N.am    1  UNK1       -0.2856
     11 N4         -0.9666   -0.4796    1.2407 N.am    1  UNK1       -0.3022
     12 N5          2.0487    0.7543    0.4558 N.am    1  UNK1       -0.3054
     13 C8         -0.1023   -0.4137    0.0587 C.3     1  UNK1        0.1034
     14 C9         -3.0484   -0.2411    2.5131 C.3     1  UNK1        0.1011
     15 C10         3.0009    1.8760    0.5910 C.3     1  UNK1        0.0680
     16 C11         0.7743   -1.6729   -0.0914 C.3     1  UNK1        0.0013
     17 C12         3.8958    1.6701    1.8556 C.2     1  UNK1        0.0623
     18 C13         3.9830    1.9466   -0.5902 C.3     1  UNK1        0.0133
     19 O1         -5.1142    1.7523    2.1582 O.2     1  UNK1       -0.2526
     20 O2         -2.6700    0.7644    0.3229 O.2     1  UNK1       -0.2738
     21 O3          0.2322    1.9905   -0.1440 O.2     1  UNK1       -0.2738
     22 N6          3.8895    1.2979   -2.9509 N.ar    1  UNK1       -0.2598
     23 O4          3.6963    0.5557    2.4409 O.co2   1  UNK1       -0.5479
     24 C14        -4.3060   -1.0783    2.1961 C.3     1  UNK1       -0.0236
     25 C15         3.3677    2.0804   -1.9675 C.ar    1  UNK1        0.0434
     26 O5          4.6743    2.6142    2.1576 O.co2   1  UNK1       -0.5479
     27 C16        -0.8821   -6.3281    0.7628 C.3     1  UNK1        0.0119
     28 C17        -5.3149    3.9787    3.6906 C.3     1  UNK1        0.0161
     29 C18        -3.8220    2.8334    5.3563 C.3     1  UNK1        0.0161
     30 C19        -1.9422   -5.4328   -2.0432 C.ar    1  UNK1       -0.0376
     31 C20        -1.0637   -2.8151   -2.6211 C.ar    1  UNK1       -0.0523
     32 C21        -4.0251   -2.4411    1.5208 C.3     1  UNK1       -0.0446
     33 C22         3.3615    1.4107   -4.1893 C.ar    1  UNK1        0.0279
     34 C23         2.3514    2.9970   -2.2263 C.ar    1  UNK1       -0.0403
     35 C24        -3.9922   -2.3302   -0.0075 C.3     1  UNK1       -0.0626
     36 C25        -5.1137   -3.4483    1.9051 C.3     1  UNK1       -0.0626
     37 C26        -5.3137    5.1684    4.6526 C.3     1  UNK1       -0.0371
     38 C27        -2.6678    3.8155    5.5483 C.3     1  UNK1       -0.0371
     39 C28        -1.8422   -3.5265   -3.5402 C.ar    1  UNK1       -0.0611
     40 C29        -2.2738   -4.8175   -3.2532 C.ar    1  UNK1       -0.0598
     41 C30         2.3326    2.2756   -4.5161 C.ar    1  UNK1       -0.0436
     42 C31         1.8199    3.0828   -3.5113 C.ar    1  UNK1       -0.0586
     43 C32        -3.9828    5.9105    4.7851 C.3     1  UNK1       -0.0516
     44 C33        -2.7119    5.0713    4.6785 C.3     1  UNK1       -0.0516
     45 H           0.4869   -4.0912    1.6321 H       1  UNK1        0.0812
     46 H          -2.4785    1.4110    3.6712 H       1  UNK1        0.1510
     47 H          -0.5378   -0.7579    2.1121 H       1  UNK1        0.1495
     48 H           2.3287    0.0029    1.0852 H       1  UNK1        0.1494
     49 H          -0.7439   -0.3341   -0.8279 H       1  UNK1        0.0598
     50 H          -2.4160   -0.8586    3.1645 H       1  UNK1        0.0595
     51 H           2.4419    2.8104    0.7086 H       1  UNK1        0.0564
     52 H           1.4199   -1.7832    0.7899 H       1  UNK1        0.0337
     53 H           1.4462   -1.5533   -0.9515 H       1  UNK1        0.0337
     54 H           4.6129    1.0457   -0.5892 H       1  UNK1        0.0350
     55 H           4.6664    2.7961   -0.4624 H       1  UNK1        0.0350
     56 H          -5.0020   -0.5188    1.5624 H       1  UNK1        0.0290
     57 H          -4.8294   -1.2466    3.1469 H       1  UNK1        0.0290
     58 H          -0.3604   -6.3413    1.7234 H       1  UNK1        0.0456
     59 H          -0.4706   -7.1043    0.1119 H       1  UNK1        0.0456
     60 H          -1.9525   -6.4816    0.9199 H       1  UNK1        0.0456
     61 H          -6.3262    3.5539    3.6628 H       1  UNK1        0.0465
     62 H          -5.0873    4.3216    2.6735 H       1  UNK1        0.0465
     63 H          -3.4776    1.8219    5.5970 H       1  UNK1        0.0465
     64 H          -4.6232    3.0261    6.0786 H       1  UNK1        0.0465
     65 H          -2.2807   -6.4402   -1.8272 H       1  UNK1        0.0638
     66 H          -0.7348   -1.8069   -2.8566 H       1  UNK1        0.0624
     67 H          -3.0645   -2.8380    1.8703 H       1  UNK1        0.0296
     68 H           3.8040    0.7605   -4.9374 H       1  UNK1        0.0829
     69 H           1.9459    3.6179   -1.4332 H       1  UNK1        0.0635
     70 H          -4.9082   -1.8700   -0.3937 H       1  UNK1        0.0232
     71 H          -3.9008   -3.3193   -0.4667 H       1  UNK1        0.0232
     72 H          -3.1475   -1.7353   -0.3568 H       1  UNK1        0.0232
     73 H          -6.1032   -3.1045    1.5837 H       1  UNK1        0.0232
     74 H          -5.1398   -3.5996    2.9890 H       1  UNK1        0.0232
     75 H          -4.9247   -4.4215    1.4390 H       1  UNK1        0.0232
     76 H          -5.6456    4.8465    5.6465 H       1  UNK1        0.0280
     77 H          -6.0742    5.8870    4.3202 H       1  UNK1        0.0280
     78 H          -1.7297    3.2928    5.3217 H       1  UNK1        0.0280
     79 H          -2.6097    4.0937    6.6076 H       1  UNK1        0.0280
     80 H          -2.1117   -3.0601   -4.4840 H       1  UNK1        0.0618
     81 H          -2.8783   -5.3550   -3.9792 H       1  UNK1        0.0618
     82 H           1.9390    2.3170   -5.5239 H       1  UNK1        0.0633
     83 H           1.0028    3.7688   -3.7124 H       1  UNK1        0.0619
     84 H          -3.9820    6.4486    5.7415 H       1  UNK1        0.0266
     85 H          -3.9365    6.6843    4.0081 H       1  UNK1        0.0266
     86 H          -2.5545    4.7892    3.6296 H       1  UNK1        0.0266
     87 H          -1.8555    5.7054    4.9408 H       1  UNK1        0.0266
@<TRIPOS>BOND
     1     2     4   ar
     2     3     9   am
     3     1     4   ar
     4     5    13    1
     5     1     6   ar
     6     7    11   am
     7     6     8   ar
     8     9    14    1
     9     3    10   am
    10    11    13    1
    11     5    12   am
    12    13    16    1
    13     7    14    1
    14    12    15    1
    15     1    16    1
    16    15    17    1
    17    15    18    1
    18     3    19    2
    19     7    20    2
    20     5    21    2
    21    22    25   ar
    22    17    23   ar
    23    14    24    1
    24    18    25    1
    25    17    26   ar
    26     2    27    1
    27    10    28    1
    28    10    29    1
    29     8    30   ar
    30     6    31   ar
    31    24    32    1
    32    22    33   ar
    33    25    34   ar
    34    32    35    1
    35    32    36    1
    36    28    37    1
    37    29    38    1
    38    31    39   ar
    39    39    40   ar
    40    41    42   ar
    41    34    42   ar
    42    37    43    1
    43    38    44    1
    44     2     8   ar
    45    30    40   ar
    46    33    41   ar
    47    43    44    1
    48     4    45    1
    49     9    46    1
    50    11    47    1
    51    12    48    1
    52    13    49    1
    53    14    50    1
    54    15    51    1
    55    16    52    1
    56    16    53    1
    57    18    54    1
    58    18    55    1
    59    24    56    1
    60    24    57    1
    61    27    58    1
    62    27    59    1
    63    27    60    1
    64    28    61    1
    65    28    62    1
    66    29    63    1
    67    29    64    1
    68    30    65    1
    69    31    66    1
    70    32    67    1
    71    33    68    1
    72    34    69    1
    73    35    70    1
    74    35    71    1
    75    35    72    1
    76    36    73    1
    77    36    74    1
    78    36    75    1
    79    37    76    1
    80    37    77    1
    81    38    78    1
    82    38    79    1
    83    39    80    1
    84    40    81    1
    85    41    82    1
    86    42    83    1
    87    43    84    1
    88    43    85    1
    89    44    86    1
    90    44    87    1
@<TRIPOS>MOLECULE
HTS1204-03362316-01
 87 90 0 0 0
SMALL
USER_CHARGES

@<TRIPOS>ATOM
      1 C1          1.6611   -2.0704    1.2758 C.ar    1  UNK1       -0.0199
      2 N1          2.8793   -1.7823    3.1251 N.ar    1  UNK1       -0.3494
      3 C2         -4.5004    0.9417    3.1640 C.2     1  UNK1        0.3028
      4 C3          1.7938   -1.3230    2.4292 C.ar    1  UNK1        0.0086
      5 C4          0.5770    0.6399    0.0898 C.2     1  UNK1        0.2342
      6 C5          2.7137   -3.0464    1.3037 C.ar    1  UNK1        0.0031
      7 C6         -2.2096   -1.4193    1.4555 C.2     1  UNK1        0.2340
      8 C7          3.4533   -2.8496    2.4718 C.ar    1  UNK1        0.0491
      9 N2         -3.7122    0.2023    2.3306 N.am    1  UNK1       -0.2879
     10 N3         -4.9196    2.1452    2.6117 N.am    1  UNK1       -0.2856
     11 N4         -1.1441   -0.5810    1.2481 N.am    1  UNK1       -0.3022
     12 N5          1.4984    0.9007   -0.8706 N.am    1  UNK1       -0.3054
     13 C8         -0.2190   -0.6830    0.1059 C.3     1  UNK1        0.1034
     14 C9         -3.0465   -1.0456    2.6968 C.3     1  UNK1        0.1011
     15 C10         1.6527    0.2720   -2.2132 C.3     1  UNK1        0.0680
     16 C11         0.6431   -1.9530    0.1715 C.3     1  UNK1        0.0013
     17 C12         1.1010    1.2038   -3.3370 C.2     1  UNK1        0.0623
     18 C13         3.1393   -0.0362   -2.4136 C.3     1  UNK1        0.0133
     19 O1         -4.8325    0.5715    4.2861 O.2     1  UNK1       -0.2526
     20 O2         -2.5036   -2.3284    0.6847 O.2     1  UNK1       -0.2738
     21 O3          0.3988    1.4911    0.9759 O.2     1  UNK1       -0.2738
     22 N6          2.9023   -2.1653   -3.6053 N.ar    1  UNK1       -0.2598
     23 O4          1.9189    2.0522   -3.7980 O.co2   1  UNK1       -0.5479
     24 C14        -4.0107   -2.1726    3.1020 C.3     1  UNK1       -0.0236
     25 C15         3.4515   -0.9239   -3.5915 C.ar    1  UNK1        0.0434
     26 O5         -0.1335    1.0658   -3.5782 O.co2   1  UNK1       -0.5479
     27 C16         3.3582   -1.2122    4.3631 C.3     1  UNK1        0.0119
     28 C17        -6.0497    2.8238    3.2437 C.3     1  UNK1        0.0161
     29 C18        -4.1259    2.8867    1.6307 C.3     1  UNK1        0.0161
     30 C19         4.5599   -3.6504    2.7987 C.ar    1  UNK1       -0.0376
     31 C20         3.1003   -4.0805    0.4244 C.ar    1  UNK1       -0.0523
     32 C21        -3.3243   -3.5001    3.5025 C.3     1  UNK1       -0.0446
     33 C22         3.2396   -2.9792   -4.6284 C.ar    1  UNK1        0.0279
     34 C23         4.3615   -0.5027   -4.5599 C.ar    1  UNK1       -0.0403
     35 C24        -4.3804   -4.5140    3.9510 C.3     1  UNK1       -0.0626
     36 C25        -2.2768   -3.3250    4.6037 C.3     1  UNK1       -0.0626
     37 C26        -6.5963    4.0406    2.4931 C.3     1  UNK1       -0.0371
     38 C27        -4.7740    2.9168    0.2489 C.3     1  UNK1       -0.0371
     39 C28         4.1994   -4.8855    0.7395 C.ar    1  UNK1       -0.0611
     40 C29         4.9166   -4.6720    1.9126 C.ar    1  UNK1       -0.0598
     41 C30         4.1390   -2.6398   -5.6253 C.ar    1  UNK1       -0.0436
     42 C31         4.7135   -1.3762   -5.5846 C.ar    1  UNK1       -0.0586
     43 C32        -7.0742    3.7877    1.0610 C.3     1  UNK1       -0.0516
     44 C33        -6.2951    2.7676    0.2328 C.3     1  UNK1       -0.0516
     45 H           1.2169   -0.4856    2.7995 H       1  UNK1        0.0812
     46 H          -3.8683    0.3595    1.3433 H       1  UNK1        0.1510
     47 H          -1.0535    0.2645    1.8071 H       1  UNK1        0.1495
     48 H           1.8510    1.8495   -0.8269 H       1  UNK1        0.1494
     49 H          -0.8446   -0.7115   -0.7951 H       1  UNK1        0.0598
     50 H          -2.3765   -0.8073    3.5311 H       1  UNK1        0.0595
     51 H           1.0600   -0.6449   -2.2518 H       1  UNK1        0.0564
     52 H           1.1797   -2.0777   -0.7734 H       1  UNK1        0.0337
     53 H          -0.0129   -2.8298    0.2478 H       1  UNK1        0.0337
     54 H           3.5251   -0.5521   -1.5231 H       1  UNK1        0.0350
     55 H           3.7188    0.8951   -2.4743 H       1  UNK1        0.0350
     56 H          -4.7109   -2.3668    2.2783 H       1  UNK1        0.0290
     57 H          -4.6273   -1.8411    3.9451 H       1  UNK1        0.0290
     58 H           2.7415   -0.3515    4.6350 H       1  UNK1        0.0456
     59 H           4.3933   -0.8914    4.2192 H       1  UNK1        0.0456
     60 H           3.2937   -1.9750    5.1425 H       1  UNK1        0.0456
     61 H          -5.7239    3.1370    4.2421 H       1  UNK1        0.0465
     62 H          -6.8483    2.0842    3.3876 H       1  UNK1        0.0465
     63 H          -3.1173    2.4645    1.5507 H       1  UNK1        0.0465
     64 H          -3.9687    3.9017    2.0136 H       1  UNK1        0.0465
     65 H           5.1284   -3.4854    3.7068 H       1  UNK1        0.0638
     66 H           2.5516   -4.2440   -0.4993 H       1  UNK1        0.0624
     67 H          -2.8205   -3.9247    2.6265 H       1  UNK1        0.0296
     68 H           2.7517   -3.9486   -4.6221 H       1  UNK1        0.0829
     69 H           4.7874    0.4951   -4.5163 H       1  UNK1        0.0635
     70 H          -4.9009   -4.1731    4.8526 H       1  UNK1        0.0232
     71 H          -3.9189   -5.4820    4.1729 H       1  UNK1        0.0232
     72 H          -5.1266   -4.6727    3.1656 H       1  UNK1        0.0232
     73 H          -2.7028   -2.8329    5.4839 H       1  UNK1        0.0232
     74 H          -1.4267   -2.7309    4.2545 H       1  UNK1        0.0232
     75 H          -1.8785   -4.2962    4.9183 H       1  UNK1        0.0232
     76 H          -5.8416    4.8361    2.4794 H       1  UNK1        0.0280
     77 H          -7.4345    4.4561    3.0663 H       1  UNK1        0.0280
     78 H          -4.3568    2.0934   -0.3458 H       1  UNK1        0.0280
     79 H          -4.4777    3.8392   -0.2661 H       1  UNK1        0.0280
     80 H           4.4932   -5.6766    0.0562 H       1  UNK1        0.0618
     81 H           5.7711   -5.3039    2.1405 H       1  UNK1        0.0618
     82 H           4.3791   -3.3389   -6.4162 H       1  UNK1        0.0633
     83 H           5.4229   -1.0659   -6.3443 H       1  UNK1        0.0619
     84 H          -7.0814    4.7479    0.5294 H       1  UNK1        0.0266
     85 H          -8.1210    3.4589    1.0945 H       1  UNK1        0.0266
     86 H          -6.5617    1.7563    0.5660 H       1  UNK1        0.0266
     87 H          -6.6387    2.8302   -0.8073 H       1  UNK1        0.0266
@<TRIPOS>BOND
     1     2     4   ar
     2     3     9   am
     3     1     4   ar
     4     5    13    1
     5     1     6   ar
     6     7    11   am
     7     6     8   ar
     8     9    14    1
     9     3    10   am
    10    11    13    1
    11     5    12   am
    12    13    16    1
    13     7    14    1
    14    12    15    1
    15     1    16    1
    16    15    17    1
    17    15    18    1
    18     3    19    2
    19     7    20    2
    20     5    21    2
    21    22    25   ar
    22    17    23   ar
    23    14    24    1
    24    18    25    1
    25    17    26   ar
    26     2    27    1
    27    10    28    1
    28    10    29    1
    29     8    30   ar
    30     6    31   ar
    31    24    32    1
    32    22    33   ar
    33    25    34   ar
    34    32    35    1
    35    32    36    1
    36    28    37    1
    37    29    38    1
    38    31    39   ar
    39    39    40   ar
    40    41    42   ar
    41    34    42   ar
    42    37    43    1
    43    38    44    1
    44     2     8   ar
    45    30    40   ar
    46    33    41   ar
    47    43    44    1
    48     4    45    1
    49     9    46    1
    50    11    47    1
    51    12    48    1
    52    13    49    1
    53    14    50    1
    54    15    51    1
    55    16    52    1
    56    16    53    1
    57    18    54    1
    58    18    55    1
    59    24    56    1
    60    24    57    1
    61    27    58    1
    62    27    59    1
    63    27    60    1
    64    28    61    1
    65    28    62    1
    66    29    63    1
    67    29    64    1
    68    30    65    1
    69    31    66    1
    70    32    67    1
    71    33    68    1
    72    34    69    1
    73    35    70    1
    74    35    71    1
    75    35    72    1
    76    36    73    1
    77    36    74    1
    78    36    75    1
    79    37    76    1
    80    37    77    1
    81    38    78    1
    82    38    79    1
    83    39    80    1
    84    40    81    1
    85    41    82    1
    86    42    83    1
    87    43    84    1
    88    43    85    1
    89    44    86    1
    90    44    87    1
@<TRIPOS>MOLECULE
HTS1204-03362316-01
 87 90 0 0 0
SMALL
USER_CHARGES

@<TRIPOS>ATOM
      1 C1          0.0134   -3.2137   -0.1951 C.ar    1  UNK1       -0.0199
      2 N1         -0.9064   -4.9206   -1.3019 N.ar    1  UNK1       -0.3494
      3 C2         -4.9924   -0.8730    2.5995 C.2     1  UNK1        0.3028
      4 C3         -0.0943   -3.8281   -1.4294 C.ar    1  UNK1        0.0086
      5 C4          0.9816    0.4918    0.0668 C.2     1  UNK1        0.2342
      6 C5         -0.7601   -4.0028    0.7212 C.ar    1  UNK1        0.0031
      7 C6         -1.6334    0.4005    1.7660 C.2     1  UNK1        0.2340
      8 C7         -1.4024   -4.9994   -0.0196 C.ar    1  UNK1        0.0491
      9 N2         -3.6686   -0.7403    2.4172 N.am    1  UNK1       -0.2879
     10 N3         -5.7217   -0.0959    3.4612 N.am    1  UNK1       -0.2856
     11 N4         -0.7914   -0.6438    1.4431 N.am    1  UNK1       -0.3022
     12 N5          1.6406    0.7739    1.2345 N.am    1  UNK1       -0.3054
     13 C8         -0.0215   -0.6739    0.1841 C.3     1  UNK1        0.1034
     14 C9         -2.6008    0.1222    2.9477 C.3     1  UNK1        0.1011
     15 C10         2.6468    1.8353    1.4047 C.3     1  UNK1        0.0680
     16 C11         0.8185   -1.9725    0.0922 C.3     1  UNK1        0.0013
     17 C12         2.8702    2.1909    2.9055 C.2     1  UNK1        0.0623
     18 C13         3.9826    1.5241    0.7114 C.3     1  UNK1        0.0133
     19 O1         -5.5223   -1.7647    1.9265 O.2     1  UNK1       -0.2526
     20 O2         -1.7119    1.4264    1.0951 O.2     1  UNK1       -0.2738
     21 O3          1.2852    0.9743   -1.0238 O.2     1  UNK1       -0.2738
     22 N6          4.7172   -0.7629    0.1961 N.ar    1  UNK1       -0.2598
     23 O4          2.1573    1.5184    3.7174 O.co2   1  UNK1       -0.5479
     24 C14        -1.9579   -0.5629    4.1700 C.3     1  UNK1       -0.0236
     25 C15         4.6598    0.2328    1.1221 C.ar    1  UNK1        0.0434
     26 O5          3.7290    3.0812    3.1521 O.co2   1  UNK1       -0.5479
     27 C16        -1.1688   -5.8790   -2.3513 C.3     1  UNK1        0.0119
     28 C17        -5.2093    0.8947    4.4105 C.3     1  UNK1        0.0161
     29 C18        -7.1683   -0.3133    3.4724 C.3     1  UNK1        0.0161
     30 C19        -2.3395   -5.8740    0.5543 C.ar    1  UNK1       -0.0376
     31 C20        -0.9952   -3.9538    2.1122 C.ar    1  UNK1       -0.0523
     32 C21        -0.9827    0.2959    4.9935 C.3     1  UNK1       -0.0446
     33 C22         5.3460   -1.9056    0.5445 C.ar    1  UNK1        0.0279
     34 C23         5.2446    0.0976    2.3797 C.ar    1  UNK1       -0.0403
     35 C24        -0.4139   -0.5456    6.1428 C.3     1  UNK1       -0.0626
     36 C25        -1.6233    1.5596    5.5666 C.3     1  UNK1       -0.0626
     37 C26        -6.1384    1.2789    5.5679 C.3     1  UNK1       -0.0371
     38 C27        -7.6194   -1.2328    4.6114 C.3     1  UNK1       -0.0371
     39 C28        -1.9486   -4.7973    2.6904 C.ar    1  UNK1       -0.0611
     40 C29        -2.6231   -5.7334    1.9153 C.ar    1  UNK1       -0.0598
     41 C30         5.9363   -2.1199    1.7772 C.ar    1  UNK1       -0.0436
     42 C31         5.8817   -1.0954    2.7111 C.ar    1  UNK1       -0.0586
     43 C32        -6.4932    0.1235    6.5060 C.3     1  UNK1       -0.0516
     44 C33        -6.7261   -1.2376    5.8527 C.3     1  UNK1       -0.0516
     45 H           0.3619   -3.5740   -2.3782 H       1  UNK1        0.0812
     46 H          -3.3735   -1.4098    1.7162 H       1  UNK1        0.1510
     47 H          -1.1337   -1.5429    1.7349 H       1  UNK1        0.1495
     48 H           1.2469    0.4669    2.1219 H       1  UNK1        0.1494
     49 H          -0.7397   -0.5912   -0.6407 H       1  UNK1        0.0598
     50 H          -3.0243    1.0891    3.2137 H       1  UNK1        0.0595
     51 H           2.2234    2.7346    0.9374 H       1  UNK1        0.0564
     52 H           1.3802   -2.1257    1.0233 H       1  UNK1        0.0337
     53 H           1.5729   -1.8661   -0.7001 H       1  UNK1        0.0337
     54 H           4.6957    2.3447    0.8627 H       1  UNK1        0.0350
     55 H           3.8160    1.4829   -0.3731 H       1  UNK1        0.0350
     56 H          -1.4297   -1.4678    3.8517 H       1  UNK1        0.0290
     57 H          -2.7459   -0.9339    4.8384 H       1  UNK1        0.0290
     58 H          -0.5226   -5.6710   -3.2081 H       1  UNK1        0.0456
     59 H          -2.2185   -5.7980   -2.6415 H       1  UNK1        0.0456
     60 H          -0.9488   -6.8800   -1.9689 H       1  UNK1        0.0456
     61 H          -4.9787    1.7967    3.8336 H       1  UNK1        0.0465
     62 H          -4.2938    0.5142    4.8533 H       1  UNK1        0.0465
     63 H          -7.5059   -0.7438    2.5217 H       1  UNK1        0.0465
     64 H          -7.6715    0.6582    3.5200 H       1  UNK1        0.0465
     65 H          -2.8481   -6.6269   -0.0383 H       1  UNK1        0.0638
     66 H          -0.4477   -3.2572    2.7403 H       1  UNK1        0.0624
     67 H          -0.1520    0.5933    4.3476 H       1  UNK1        0.0296
     68 H           5.3640   -2.6705   -0.2249 H       1  UNK1        0.0829
     69 H           5.2095    0.9092    3.1017 H       1  UNK1        0.0635
     70 H          -1.2073   -0.8706    6.8258 H       1  UNK1        0.0232
     71 H           0.3164    0.0268    6.7242 H       1  UNK1        0.0232
     72 H           0.0897   -1.4404    5.7619 H       1  UNK1        0.0232
     73 H          -2.4906    1.3191    6.1904 H       1  UNK1        0.0232
     74 H          -1.9458    2.2412    4.7747 H       1  UNK1        0.0232
     75 H          -0.9078    2.1063    6.1906 H       1  UNK1        0.0232
     76 H          -7.0576    1.7414    5.1923 H       1  UNK1        0.0280
     77 H          -5.6490    2.0622    6.1612 H       1  UNK1        0.0280
     78 H          -7.6544   -2.2615    4.2299 H       1  UNK1        0.0280
     79 H          -8.6490   -0.9780    4.8894 H       1  UNK1        0.0280
     80 H          -2.1635   -4.7163    3.7529 H       1  UNK1        0.0618
     81 H          -3.3701   -6.3749    2.3763 H       1  UNK1        0.0618
     82 H           6.4257   -3.0585    2.0038 H       1  UNK1        0.0633
     83 H           6.3269   -1.2127    3.6939 H       1  UNK1        0.0619
     84 H          -7.3826    0.4061    7.0822 H       1  UNK1        0.0266
     85 H          -5.6846    0.0073    7.2395 H       1  UNK1        0.0266
     86 H          -5.7559   -1.6833    5.5969 H       1  UNK1        0.0266
     87 H          -7.1650   -1.9116    6.5990 H       1  UNK1        0.0266
@<TRIPOS>BOND
     1     2     4   ar
     2     3     9   am
     3     1     4   ar
     4     5    13    1
     5     1     6   ar
     6     7    11   am
     7     6     8   ar
     8     9    14    1
     9     3    10   am
    10    11    13    1
    11     5    12   am
    12    13    16    1
    13     7    14    1
    14    12    15    1
    15     1    16    1
    16    15    17    1
    17    15    18    1
    18     3    19    2
    19     7    20    2
    20     5    21    2
    21    22    25   ar
    22    17    23   ar
    23    14    24    1
    24    18    25    1
    25    17    26   ar
    26     2    27    1
    27    10    28    1
    28    10    29    1
    29     8    30   ar
    30     6    31   ar
    31    24    32    1
    32    22    33   ar
    33    25    34   ar
    34    32    35    1
    35    32    36    1
    36    28    37    1
    37    29    38    1
    38    31    39   ar
    39    39    40   ar
    40    41    42   ar
    41    34    42   ar
    42    37    43    1
    43    38    44    1
    44     2     8   ar
    45    30    40   ar
    46    33    41   ar
    47    43    44    1
    48     4    45    1
    49     9    46    1
    50    11    47    1
    51    12    48    1
    52    13    49    1
    53    14    50    1
    54    15    51    1
    55    16    52    1
    56    16    53    1
    57    18    54    1
    58    18    55    1
    59    24    56    1
    60    24    57    1
    61    27    58    1
    62    27    59    1
    63    27    60    1
    64    28    61    1
    65    28    62    1
    66    29    63    1
    67    29    64    1
    68    30    65    1
    69    31    66    1
    70    32    67    1
    71    33    68    1
    72    34    69    1
    73    35    70    1
    74    35    71    1
    75    35    72    1
    76    36    73    1
    77    36    74    1
    78    36    75    1
    79    37    76    1
    80    37    77    1
    81    38    78    1
    82    38    79    1
    83    39    80    1
    84    40    81    1
    85    41    82    1
    86    42    83    1
    87    43    84    1
    88    43    85    1
    89    44    86    1
    90    44    87    1
@<TRIPOS>MOLECULE
HTS1204-03362316-01
 87 90 0 0 0
SMALL
USER_CHARGES

@<TRIPOS>ATOM
      1 C1          0.0736   -2.9811   -0.1443 C.ar    1  UNK1       -0.0199
      2 N1         -0.9216   -4.9338    0.2705 N.ar    1  UNK1       -0.3494
      3 C2         -4.3316    1.8243    3.0694 C.2     1  UNK1        0.3028
      4 C3         -0.3385   -3.8432    0.8546 C.ar    1  UNK1        0.0086
      5 C4          0.7682    0.8850    0.1221 C.2     1  UNK1        0.2342
      6 C5         -0.2820   -3.5911   -1.3892 C.ar    1  UNK1        0.0031
      7 C6         -2.2329    0.0739    1.2273 C.2     1  UNK1        0.2340
      8 C7         -0.8922   -4.8159   -1.1019 C.ar    1  UNK1        0.0491
      9 N2         -3.3328    0.9143    3.3101 N.am    1  UNK1       -0.2879
     10 N3         -4.3712    2.8776    3.9813 N.am    1  UNK1       -0.2856
     11 N4         -0.9536   -0.4540    1.2751 N.am    1  UNK1       -0.3022
     12 N5          2.0980    0.7540    0.4332 N.am    1  UNK1       -0.3054
     13 C8         -0.0583   -0.4275    0.1133 C.3     1  UNK1        0.1034
     14 C9         -3.0767   -0.2671    2.4745 C.3     1  UNK1        0.1011
     15 C10         3.0357    1.8876    0.5710 C.3     1  UNK1        0.0680
     16 C11         0.8214   -1.6925    0.0498 C.3     1  UNK1        0.0013
     17 C12         3.9340    1.6896    1.8342 C.2     1  UNK1        0.0623
     18 C13         4.0116    1.9720   -0.6133 C.3     1  UNK1        0.0133
     19 O1         -5.1468    1.7219    2.1627 O.2     1  UNK1       -0.2526
     20 O2         -2.6690    0.7082    0.2731 O.2     1  UNK1       -0.2738
     21 O3          0.2459    1.9837   -0.0687 O.2     1  UNK1       -0.2738
     22 N6          3.9161    1.3240   -2.9742 N.ar    1  UNK1       -0.2598
     23 O4          3.7470    0.5723    2.4180 O.co2   1  UNK1       -0.5479
     24 C14        -4.3331   -1.0879    2.1113 C.3     1  UNK1       -0.0236
     25 C15         3.3845    2.0946   -1.9865 C.ar    1  UNK1        0.0434
     26 O5          4.7032    2.6411    2.1362 O.co2   1  UNK1       -0.5479
     27 C16        -1.4634   -6.0614    0.9937 C.3     1  UNK1        0.0119
     28 C17        -3.7585    2.8084    5.3121 C.3     1  UNK1        0.0161
     29 C18        -5.2469    4.0038    3.6742 C.3     1  UNK1        0.0161
     30 C19        -1.3410   -5.6825   -2.1118 C.ar    1  UNK1       -0.0376
     31 C20        -0.1182   -3.2184   -2.7396 C.ar    1  UNK1       -0.0523
     32 C21        -4.0345   -2.4766    1.4943 C.3     1  UNK1       -0.0446
     33 C22         3.3778    1.4275   -4.2089 C.ar    1  UNK1        0.0279
     34 C23         2.3465    2.9892   -2.2371 C.ar    1  UNK1       -0.0403
     35 C24        -3.8587   -2.4181   -0.0276 C.3     1  UNK1       -0.0626
     36 C25        -5.1788   -3.4451    1.8089 C.3     1  UNK1       -0.0626
     37 C26        -4.3208    3.7777    6.3566 C.3     1  UNK1       -0.0371
     38 C27        -6.6414    3.8802    4.2900 C.3     1  UNK1       -0.0371
     39 C28        -0.5615   -4.0746   -3.7534 C.ar    1  UNK1       -0.0611
     40 C29        -1.1625   -5.2901   -3.4413 C.ar    1  UNK1       -0.0598
     41 C30         2.3295    2.2715   -4.5279 C.ar    1  UNK1       -0.0436
     42 C31         1.8061    3.0666   -3.5186 C.ar    1  UNK1       -0.0586
     43 C32        -5.7961    3.5766    6.7163 C.3     1  UNK1       -0.0516
     44 C33        -6.7211    3.0982    5.5998 C.3     1  UNK1       -0.0516
     45 H          -0.2423   -3.7664    1.9297 H       1  UNK1        0.0812
     46 H          -2.4977    1.3609    3.6573 H       1  UNK1        0.1510
     47 H          -0.5381   -0.6733    2.1697 H       1  UNK1        0.1495
     48 H           2.4058   -0.0026    1.0433 H       1  UNK1        0.1494
     49 H          -0.6725   -0.3892   -0.7959 H       1  UNK1        0.0598
     50 H          -2.4642   -0.9033    3.1272 H       1  UNK1        0.0595
     51 H           2.4666    2.8151    0.6932 H       1  UNK1        0.0564
     52 H           1.4001   -1.7932    0.9780 H       1  UNK1        0.0337
     53 H           1.5558   -1.5926   -0.7602 H       1  UNK1        0.0337
     54 H           4.6545    1.0804   -0.6150 H       1  UNK1        0.0350
     55 H           4.6825    2.8318   -0.4894 H       1  UNK1        0.0350
     56 H          -4.9786   -0.5338    1.4209 H       1  UNK1        0.0290
     57 H          -4.9126   -1.2220    3.0345 H       1  UNK1        0.0290
     58 H          -1.3936   -5.8765    2.0687 H       1  UNK1        0.0456
     59 H          -0.8825   -6.9499    0.7329 H       1  UNK1        0.0456
     60 H          -2.5114   -6.1860    0.7095 H       1  UNK1        0.0456
     61 H          -2.6918    3.0201    5.1754 H       1  UNK1        0.0465
     62 H          -3.8423    1.7809    5.6859 H       1  UNK1        0.0465
     63 H          -5.3515    4.1053    2.5867 H       1  UNK1        0.0465
     64 H          -4.7539    4.9268    3.9966 H       1  UNK1        0.0465
     65 H          -1.8078   -6.6328   -1.8764 H       1  UNK1        0.0638
     66 H           0.3548   -2.2738   -2.9939 H       1  UNK1        0.0624
     67 H          -3.1215   -2.8874    1.9409 H       1  UNK1        0.0296
     68 H           3.8287    0.7876   -4.9608 H       1  UNK1        0.0829
     69 H           1.9332    3.6007   -1.4407 H       1  UNK1        0.0635
     70 H          -4.7208   -1.9442   -0.5097 H       1  UNK1        0.0232
     71 H          -3.7561   -3.4248   -0.4467 H       1  UNK1        0.0232
     72 H          -2.9654   -1.8643   -0.3187 H       1  UNK1        0.0232
     73 H          -6.1272   -3.0868    1.3943 H       1  UNK1        0.0232
     74 H          -5.3012   -3.5654    2.8901 H       1  UNK1        0.0232
     75 H          -4.9760   -4.4356    1.3870 H       1  UNK1        0.0232
     76 H          -4.1681    4.8133    6.0317 H       1  UNK1        0.0280
     77 H          -3.7308    3.6800    7.2768 H       1  UNK1        0.0280
     78 H          -7.2981    3.3787    3.5672 H       1  UNK1        0.0280
     79 H          -7.0588    4.8853    4.4272 H       1  UNK1        0.0280
     80 H          -0.4298   -3.7844   -4.7923 H       1  UNK1        0.0618
     81 H          -1.4968   -5.9449   -4.2420 H       1  UNK1        0.0618
     82 H           1.9290    2.3069   -5.5333 H       1  UNK1        0.0633
     83 H           0.9744    3.7366   -3.7142 H       1  UNK1        0.0619
     84 H          -6.1833    4.5172    7.1284 H       1  UNK1        0.0266
     85 H          -5.8586    2.8463    7.5334 H       1  UNK1        0.0266
     86 H          -6.5241    2.0374    5.3994 H       1  UNK1        0.0266
     87 H          -7.7555    3.1372    5.9650 H       1  UNK1        0.0266
@<TRIPOS>BOND
     1     2     4   ar
     2     3     9   am
     3     1     4   ar
     4     5    13    1
     5     1     6   ar
     6     7    11   am
     7     6     8   ar
     8     9    14    1
     9     3    10   am
    10    11    13    1
    11     5    12   am
    12    13    16    1
    13     7    14    1
    14    12    15    1
    15     1    16    1
    16    15    17    1
    17    15    18    1
    18     3    19    2
    19     7    20    2
    20     5    21    2
    21    22    25   ar
    22    17    23   ar
    23    14    24    1
    24    18    25    1
    25    17    26   ar
    26     2    27    1
    27    10    28    1
    28    10    29    1
    29     8    30   ar
    30     6    31   ar
    31    24    32    1
    32    22    33   ar
    33    25    34   ar
    34    32    35    1
    35    32    36    1
    36    28    37    1
    37    29    38    1
    38    31    39   ar
    39    39    40   ar
    40    41    42   ar
    41    34    42   ar
    42    37    43    1
    43    38    44    1
    44     2     8   ar
    45    30    40   ar
    46    33    41   ar
    47    43    44    1
    48     4    45    1
    49     9    46    1
    50    11    47    1
    51    12    48    1
    52    13    49    1
    53    14    50    1
    54    15    51    1
    55    16    52    1
    56    16    53    1
    57    18    54    1
    58    18    55    1
    59    24    56    1
    60    24    57    1
    61    27    58    1
    62    27    59    1
    63    27    60    1
    64    28    61    1
    65    28    62    1
    66    29    63    1
    67    29    64    1
    68    30    65    1
    69    31    66    1
    70    32    67    1
    71    33    68    1
    72    34    69    1
    73    35    70    1
    74    35    71    1
    75    35    72    1
    76    36    73    1
    77    36    74    1
    78    36    75    1
    79    37    76    1
    80    37    77    1
    81    38    78    1
    82    38    79    1
    83    39    80    1
    84    40    81    1
    85    41    82    1
    86    42    83    1
    87    43    84    1
    88    43    85    1
    89    44    86    1
    90    44    87    1
@<TRIPOS>MOLECULE
HTS1204-03362316-01
 87 90 0 0 0
SMALL
USER_CHARGES

@<TRIPOS>ATOM
      1 C1          0.1627   -3.0328   -0.0177 C.ar    1  UNK1       -0.0199
      2 N1         -1.1033   -4.6413   -0.9077 N.ar    1  UNK1       -0.3494
      3 C2         -1.9844   -2.4200    4.7425 C.2     1  UNK1        0.3028
      4 C3         -0.6160   -3.3779   -1.1079 C.ar    1  UNK1        0.0086
      5 C4          0.8101    0.7991    0.1391 C.2     1  UNK1        0.2342
      6 C5          0.1664   -4.1659    0.8589 C.ar    1  UNK1        0.0031
      7 C6         -1.0744   -0.5989    2.4248 C.2     1  UNK1        0.2340
      8 C7         -0.6204   -5.1613    0.2726 C.ar    1  UNK1        0.0491
      9 N2         -2.1909   -1.0820    4.5292 N.am    1  UNK1       -0.2879
     10 N3         -1.6725   -2.7317    6.0599 N.am    1  UNK1       -0.2856
     11 N4         -1.1718   -0.5231    1.0570 N.am    1  UNK1       -0.3022
     12 N5          1.1336    1.2696    1.3796 N.am    1  UNK1       -0.3054
     13 C8         -0.0360   -0.4995    0.1193 C.3     1  UNK1        0.1034
     14 C9         -2.4308   -0.5787    3.1706 C.3     1  UNK1        0.1011
     15 C10         1.7364    2.5937    1.6901 C.3     1  UNK1        0.0680
     16 C11         0.8808   -1.7275    0.2036 C.3     1  UNK1        0.0013
     17 C12         0.7499    3.4384    2.5680 C.2     1  UNK1        0.0623
     18 C13         3.0263    2.3263    2.4747 C.3     1  UNK1        0.0133
     19 O1         -2.0540   -3.2533    3.8446 O.2     1  UNK1       -0.2526
     20 O2          0.0085   -0.6093    3.0087 O.2     1  UNK1       -0.2738
     21 O3          1.2807    1.2544   -0.9043 O.2     1  UNK1       -0.2738
     22 N6          3.7525    4.6672    2.1935 N.ar    1  UNK1       -0.2598
     23 O4          0.5140    2.9544    3.7207 O.co2   1  UNK1       -0.5479
     24 C14        -3.0203    0.8382    3.3031 C.3     1  UNK1       -0.0236
     25 C15         3.8429    3.5206    2.9028 C.ar    1  UNK1        0.0434
     26 O5          0.1849    4.4154    1.9989 O.co2   1  UNK1       -0.5479
     27 C16        -2.0081   -5.3264   -1.8020 C.3     1  UNK1        0.0119
     28 C17        -1.0261   -4.0219    6.3125 C.3     1  UNK1        0.0161
     29 C18        -2.2677   -2.0077    7.1842 C.3     1  UNK1        0.0161
     30 C19        -0.8187   -6.4123    0.8804 C.ar    1  UNK1       -0.0376
     31 C20         0.7688   -4.4313    2.1066 C.ar    1  UNK1       -0.0523
     32 C21        -3.7451    1.4971    2.1103 C.3     1  UNK1       -0.0446
     33 C22         4.4795    5.7228    2.6151 C.ar    1  UNK1        0.0279
     34 C23         4.7285    3.3843    3.9730 C.ar    1  UNK1       -0.0403
     35 C24        -4.7147    0.5674    1.3867 C.3     1  UNK1       -0.0626
     36 C25        -2.8123    2.1978    1.1240 C.3     1  UNK1       -0.0626
     37 C26        -1.1490   -4.5654    7.7369 C.3     1  UNK1       -0.0371
     38 C27        -3.5956   -2.6298    7.6319 C.3     1  UNK1       -0.0371
     39 C28         0.5809   -5.6744    2.7194 C.ar    1  UNK1       -0.0611
     40 C29        -0.2010   -6.6510    2.1115 C.ar    1  UNK1       -0.0598
     41 C30         5.3639    5.6763    3.6792 C.ar    1  UNK1       -0.0436
     42 C31         5.5003    4.4750    4.3615 C.ar    1  UNK1       -0.0586
     43 C32        -2.5725   -4.9530    8.1443 C.3     1  UNK1       -0.0516
     44 C33        -3.7026   -4.1510    7.5022 C.3     1  UNK1       -0.0516
     45 H          -0.8701   -2.8145   -1.9962 H       1  UNK1        0.0812
     46 H          -1.5057   -0.5265    5.0305 H       1  UNK1        0.1510
     47 H          -2.0551   -0.7993    0.6548 H       1  UNK1        0.1495
     48 H           0.7156    0.8259    2.1964 H       1  UNK1        0.1494
     49 H          -0.5237   -0.4897   -0.8657 H       1  UNK1        0.0598
     50 H          -3.1269   -1.2656    2.6786 H       1  UNK1        0.0595
     51 H           1.9454    3.1181    0.7513 H       1  UNK1        0.0564
     52 H           1.4032   -1.7434    1.1664 H       1  UNK1        0.0337
     53 H           1.6692   -1.6448   -0.5566 H       1  UNK1        0.0337
     54 H           3.6830    1.6901    1.8656 H       1  UNK1        0.0350
     55 H           2.7853    1.7341    3.3691 H       1  UNK1        0.0350
     56 H          -2.2431    1.5224    3.6702 H       1  UNK1        0.0290
     57 H          -3.7650    0.7969    4.1128 H       1  UNK1        0.0290
     58 H          -2.2423   -4.6821   -2.6535 H       1  UNK1        0.0456
     59 H          -2.9254   -5.5589   -1.2546 H       1  UNK1        0.0456
     60 H          -1.5242   -6.2415   -2.1521 H       1  UNK1        0.0456
     61 H           0.0365   -3.8682    6.0871 H       1  UNK1        0.0465
     62 H          -1.3900   -4.7693    5.5989 H       1  UNK1        0.0465
     63 H          -2.4596   -0.9622    6.9211 H       1  UNK1        0.0465
     64 H          -1.5471   -1.9681    8.0063 H       1  UNK1        0.0465
     65 H          -1.4392   -7.1732    0.4205 H       1  UNK1        0.0638
     66 H           1.3596   -3.6658    2.6020 H       1  UNK1        0.0624
     67 H          -4.3524    2.3002    2.5527 H       1  UNK1        0.0296
     68 H           4.3196    6.6377    2.0543 H       1  UNK1        0.0829
     69 H           4.8043    2.4408    4.5032 H       1  UNK1        0.0635
     70 H          -4.1949   -0.2311    0.8498 H       1  UNK1        0.0232
     71 H          -5.3032    1.1267    0.6513 H       1  UNK1        0.0232
     72 H          -5.4134    0.1078    2.0931 H       1  UNK1        0.0232
     73 H          -2.4016    1.5187    0.3763 H       1  UNK1        0.0232
     74 H          -1.9868    2.6937    1.6408 H       1  UNK1        0.0232
     75 H          -3.3625    2.9689    0.5724 H       1  UNK1        0.0232
     76 H          -0.7433   -3.8481    8.4596 H       1  UNK1        0.0280
     77 H          -0.5100   -5.4528    7.8330 H       1  UNK1        0.0280
     78 H          -4.4031   -2.1957    7.0279 H       1  UNK1        0.0280
     79 H          -3.7968   -2.3300    8.6673 H       1  UNK1        0.0280
     80 H           1.0387   -5.8650    3.6855 H       1  UNK1        0.0618
     81 H          -0.3463   -7.6066    2.6075 H       1  UNK1        0.0618
     82 H           5.9246    6.5550    3.9705 H       1  UNK1        0.0633
     83 H           6.1854    4.3884    5.1981 H       1  UNK1        0.0619
     84 H          -2.6553   -4.8959    9.2363 H       1  UNK1        0.0266
     85 H          -2.7278   -6.0086    7.8862 H       1  UNK1        0.0266
     86 H          -3.7745   -4.4187    6.4399 H       1  UNK1        0.0266
     87 H          -4.6541   -4.4738    7.9436 H       1  UNK1        0.0266
@<TRIPOS>BOND
     1     2     4   ar
     2     3     9   am
     3     1     4   ar
     4     5    13    1
     5     1     6   ar
     6     7    11   am
     7     6     8   ar
     8     9    14    1
     9     3    10   am
    10    11    13    1
    11     5    12   am
    12    13    16    1
    13     7    14    1
    14    12    15    1
    15     1    16    1
    16    15    17    1
    17    15    18    1
    18     3    19    2
    19     7    20    2
    20     5    21    2
    21    22    25   ar
    22    17    23   ar
    23    14    24    1
    24    18    25    1
    25    17    26   ar
    26     2    27    1
    27    10    28    1
    28    10    29    1
    29     8    30   ar
    30     6    31   ar
    31    24    32    1
    32    22    33   ar
    33    25    34   ar
    34    32    35    1
    35    32    36    1
    36    28    37    1
    37    29    38    1
    38    31    39   ar
    39    39    40   ar
    40    41    42   ar
    41    34    42   ar
    42    37    43    1
    43    38    44    1
    44     2     8   ar
    45    30    40   ar
    46    33    41   ar
    47    43    44    1
    48     4    45    1
    49     9    46    1
    50    11    47    1
    51    12    48    1
    52    13    49    1
    53    14    50    1
    54    15    51    1
    55    16    52    1
    56    16    53    1
    57    18    54    1
    58    18    55    1
    59    24    56    1
    60    24    57    1
    61    27    58    1
    62    27    59    1
    63    27    60    1
    64    28    61    1
    65    28    62    1
    66    29    63    1
    67    29    64    1
    68    30    65    1
    69    31    66    1
    70    32    67    1
    71    33    68    1
    72    34    69    1
    73    35    70    1
    74    35    71    1
    75    35    72    1
    76    36    73    1
    77    36    74    1
    78    36    75    1
    79    37    76    1
    80    37    77    1
    81    38    78    1
    82    38    79    1
    83    39    80    1
    84    40    81    1
    85    41    82    1
    86    42    83    1
    87    43    84    1
    88    43    85    1
    89    44    86    1
    90    44    87    1
@<TRIPOS>MOLECULE
HTS1204-03362316-01
 87 90 0 0 0
SMALL
USER_CHARGES

@<TRIPOS>ATOM
      1 C1          1.5117   -1.7254   -1.2788 C.ar    1  UNK1       -0.0199
      2 N1          3.2380   -1.4611   -2.6712 N.ar    1  UNK1       -0.3494
      3 C2         -4.7616    0.9407    1.8470 C.2     1  UNK1        0.3028
      4 C3          2.7245   -1.0953   -1.4607 C.ar    1  UNK1        0.0086
      5 C4          0.4704    1.0415    0.0322 C.2     1  UNK1        0.2342
      6 C5          1.3718   -2.6425   -2.3726 C.ar    1  UNK1        0.0031
      7 C6         -2.4089   -0.9853    1.1440 C.2     1  UNK1        0.2340
      8 C7          2.4699   -2.4623   -3.2231 C.ar    1  UNK1        0.0491
      9 N2         -4.4906   -0.2760    2.4128 N.am    1  UNK1       -0.2879
     10 N3         -6.0682    1.3960    2.0144 N.am    1  UNK1       -0.2856
     11 N4         -1.2162   -0.3053    1.0451 N.am    1  UNK1       -0.3022
     12 N5          1.0653    1.5220   -1.1050 N.am    1  UNK1       -0.3054
     13 C8         -0.3077   -0.2948   -0.1247 C.3     1  UNK1        0.1034
     14 C9         -3.1087   -0.7807    2.5204 C.3     1  UNK1        0.1011
     15 C10         1.7492    2.8334   -1.1638 C.3     1  UNK1        0.0680
     16 C11         0.6018   -1.5340   -0.1030 C.3     1  UNK1        0.0013
     17 C12         3.2090    2.8772   -0.6141 C.2     1  UNK1        0.0623
     18 C13         1.9912    3.2921   -2.6136 C.3     1  UNK1        0.0133
     19 O1         -3.9097    1.5759    1.2336 O.2     1  UNK1       -0.2526
     20 O2         -2.8408   -1.7329    0.2699 O.2     1  UNK1       -0.2738
     21 O3          0.4815    1.6347    1.1128 O.2     1  UNK1       -0.2738
     22 N6         -0.4619    3.3829   -2.9589 N.ar    1  UNK1       -0.2598
     23 O4          3.9701    1.9355   -0.9982 O.co2   1  UNK1       -0.5479
     24 C14        -3.1885   -2.1153    3.2971 C.3     1  UNK1       -0.0236
     25 C15         0.7748    3.4261   -3.5043 C.ar    1  UNK1        0.0434
     26 O5          3.5091    3.9005    0.0675 O.co2   1  UNK1       -0.5479
     27 C16         4.4183   -0.8746   -3.2645 C.3     1  UNK1        0.0119
     28 C17        -6.3819    2.6948    1.4049 C.3     1  UNK1        0.0161
     29 C18        -7.1148    0.7380    2.7957 C.3     1  UNK1        0.0161
     30 C19         2.6479   -3.2207   -4.3917 C.ar    1  UNK1       -0.0376
     31 C20         0.4173   -3.6249   -2.7106 C.ar    1  UNK1       -0.0523
     32 C21        -1.8965   -2.8506    3.7000 C.3     1  UNK1       -0.0446
     33 C22        -1.5224    3.4645   -3.7870 C.ar    1  UNK1        0.0279
     34 C23         0.9640    3.5930   -4.8773 C.ar    1  UNK1       -0.0403
     35 C24        -0.8176   -1.9311    4.2627 C.3     1  UNK1       -0.0626
     36 C25        -1.3439   -3.7344    2.5839 C.3     1  UNK1       -0.0626
     37 C26        -7.7265    3.3193    1.7893 C.3     1  UNK1       -0.0371
     38 C27        -7.2536    1.3502    4.1926 C.3     1  UNK1       -0.0371
     39 C28         0.5968   -4.4023   -3.8612 C.ar    1  UNK1       -0.0611
     40 C29         1.6976   -4.2006   -4.6884 C.ar    1  UNK1       -0.0598
     41 C30        -1.4176    3.6160   -5.1588 C.ar    1  UNK1       -0.0436
     42 C31        -0.1447    3.6881   -5.7109 C.ar    1  UNK1       -0.0586
     43 C32        -7.8842    3.6848    3.2694 C.3     1  UNK1       -0.0516
     44 C33        -7.0690    2.8675    4.2690 C.3     1  UNK1       -0.0516
     45 H           3.2354   -0.3639   -0.8439 H       1  UNK1        0.0812
     46 H          -5.0335   -0.4417    3.2392 H       1  UNK1        0.1510
     47 H          -1.0612    0.4844    1.6717 H       1  UNK1        0.1495
     48 H           1.2182    0.8968   -1.8826 H       1  UNK1        0.1494
     49 H          -0.9191   -0.2576   -1.0335 H       1  UNK1        0.0598
     50 H          -2.5583   -0.0386    3.1106 H       1  UNK1        0.0595
     51 H           1.1305    3.5566   -0.6193 H       1  UNK1        0.0564
     52 H          -0.0280   -2.4279   -0.0291 H       1  UNK1        0.0337
     53 H           1.2120   -1.5236    0.8102 H       1  UNK1        0.0337
     54 H           2.6626    2.5759   -3.1116 H       1  UNK1        0.0350
     55 H           2.5026    4.2640   -2.6163 H       1  UNK1        0.0350
     56 H          -3.8368   -2.8132    2.7480 H       1  UNK1        0.0290
     57 H          -3.7266   -1.9097    4.2347 H       1  UNK1        0.0290
     58 H           4.8281   -0.1090   -2.6022 H       1  UNK1        0.0456
     59 H           4.1324   -0.4213   -4.2178 H       1  UNK1        0.0456
     60 H           5.1584   -1.6633   -3.4192 H       1  UNK1        0.0456
     61 H          -6.3636    2.5396    0.3191 H       1  UNK1        0.0465
     62 H          -5.5721    3.3988    1.6369 H       1  UNK1        0.0465
     63 H          -6.9260   -0.3357    2.8918 H       1  UNK1        0.0465
     64 H          -8.0598    0.7929    2.2473 H       1  UNK1        0.0465
     65 H           3.5045   -3.0652   -5.0373 H       1  UNK1        0.0638
     66 H          -0.4454   -3.7917   -2.0707 H       1  UNK1        0.0624
     67 H          -2.1816   -3.5384    4.5080 H       1  UNK1        0.0296
     68 H          -2.4895    3.3983   -3.2983 H       1  UNK1        0.0829
     69 H           1.9682    3.6371   -5.2884 H       1  UNK1        0.0635
     70 H          -0.4032   -1.2675    3.4987 H       1  UNK1        0.0232
     71 H           0.0120   -2.5199    4.6684 H       1  UNK1        0.0232
     72 H          -1.2168   -1.3153    5.0740 H       1  UNK1        0.0232
     73 H          -0.9144   -3.1447    1.7780 H       1  UNK1        0.0232
     74 H          -2.1274   -4.3737    2.1609 H       1  UNK1        0.0232
     75 H          -0.5543   -4.3879    2.9664 H       1  UNK1        0.0232
     76 H          -8.5509    2.6608    1.4889 H       1  UNK1        0.0280
     77 H          -7.8724    4.2321    1.1952 H       1  UNK1        0.0280
     78 H          -6.5034    0.8946    4.8536 H       1  UNK1        0.0280
     79 H          -8.2317    1.0741    4.6053 H       1  UNK1        0.0280
     80 H          -0.1314   -5.1712   -4.1054 H       1  UNK1        0.0618
     81 H           1.8227   -4.8131   -5.5777 H       1  UNK1        0.0618
     82 H          -2.3037    3.6747   -5.7769 H       1  UNK1        0.0633
     83 H          -0.0155    3.8095   -6.7818 H       1  UNK1        0.0619
     84 H          -8.9484    3.6305    3.5342 H       1  UNK1        0.0266
     85 H          -7.6010    4.7384    3.3944 H       1  UNK1        0.0266
     86 H          -6.0054    3.1086    4.1456 H       1  UNK1        0.0266
     87 H          -7.3247    3.1988    5.2826 H       1  UNK1        0.0266
@<TRIPOS>BOND
     1     2     4   ar
     2     3     9   am
     3     1     4   ar
     4     5    13    1
     5     1     6   ar
     6     7    11   am
     7     6     8   ar
     8     9    14    1
     9     3    10   am
    10    11    13    1
    11     5    12   am
    12    13    16    1
    13     7    14    1
    14    12    15    1
    15     1    16    1
    16    15    17    1
    17    15    18    1
    18     3    19    2
    19     7    20    2
    20     5    21    2
    21    22    25   ar
    22    17    23   ar
    23    14    24    1
    24    18    25    1
    25    17    26   ar
    26     2    27    1
    27    10    28    1
    28    10    29    1
    29     8    30   ar
    30     6    31   ar
    31    24    32    1
    32    22    33   ar
    33    25    34   ar
    34    32    35    1
    35    32    36    1
    36    28    37    1
    37    29    38    1
    38    31    39   ar
    39    39    40   ar
    40    41    42   ar
    41    34    42   ar
    42    37    43    1
    43    38    44    1
    44     2     8   ar
    45    30    40   ar
    46    33    41   ar
    47    43    44    1
    48     4    45    1
    49     9    46    1
    50    11    47    1
    51    12    48    1
    52    13    49    1
    53    14    50    1
    54    15    51    1
    55    16    52    1
    56    16    53    1
    57    18    54    1
    58    18    55    1
    59    24    56    1
    60    24    57    1
    61    27    58    1
    62    27    59    1
    63    27    60    1
    64    28    61    1
    65    28    62    1
    66    29    63    1
    67    29    64    1
    68    30    65    1
    69    31    66    1
    70    32    67    1
    71    33    68    1
    72    34    69    1
    73    35    70    1
    74    35    71    1
    75    35    72    1
    76    36    73    1
    77    36    74    1
    78    36    75    1
    79    37    76    1
    80    37    77    1
    81    38    78    1
    82    38    79    1
    83    39    80    1
    84    40    81    1
    85    41    82    1
    86    42    83    1
    87    43    84    1
    88    43    85    1
    89    44    86    1
    90    44    87    1
@<TRIPOS>MOLECULE
HTS1204-03362316-01
 87 90 0 0 0
SMALL
USER_CHARGES

@<TRIPOS>ATOM
      1 C1          1.7158   -1.8134    0.9380 C.ar    1  UNK1       -0.0199
      2 N1          2.4749   -2.8130    2.7863 N.ar    1  UNK1       -0.3494
      3 C2         -5.5157   -0.3789    2.1044 C.2     1  UNK1        0.3028
      4 C3          1.5763   -2.9165    1.7611 C.ar    1  UNK1        0.0086
      5 C4          0.3820    0.9377   -0.0611 C.2     1  UNK1        0.2342
      6 C5          2.7957   -1.0373    1.4790 C.ar    1  UNK1        0.0031
      7 C6         -2.4313   -0.6409    1.0900 C.2     1  UNK1        0.2340
      8 C7          3.2213   -1.6642    2.6549 C.ar    1  UNK1        0.0491
      9 N2         -4.2983    0.0620    2.5632 N.am    1  UNK1       -0.2879
     10 N3         -6.5207    0.5839    2.1762 N.am    1  UNK1       -0.2856
     11 N4         -1.0568   -0.7693    1.0828 N.am    1  UNK1       -0.3022
     12 N5          0.0312    1.6689    1.0599 N.am    1  UNK1       -0.3054
     13 C8         -0.2348   -0.4800   -0.1038 C.3     1  UNK1        0.1034
     14 C9         -3.0648   -0.7343    2.5036 C.3     1  UNK1        0.1011
     15 C10         0.5301    3.0511    1.2530 C.3     1  UNK1        0.0680
     16 C11         0.8874   -1.5255   -0.2919 C.3     1  UNK1        0.0013
     17 C12        -0.3182    4.1603    0.5681 C.2     1  UNK1        0.0623
     18 C13         0.7149    3.3808    2.7443 C.3     1  UNK1        0.0133
     19 O1         -5.7221   -1.5168    1.6959 O.2     1  UNK1       -0.2526
     20 O2         -3.0804   -0.4560    0.0656 O.2     1  UNK1       -0.2738
     21 O3          1.1570    1.3310   -0.9308 O.2     1  UNK1       -0.2738
     22 N6         -0.1059    3.5030    5.0244 N.ar    1  UNK1       -0.2598
     23 O4         -1.4475    3.7752    0.1430 O.co2   1  UNK1       -0.5479
     24 C14        -3.2242   -2.1803    3.0067 C.3     1  UNK1       -0.0236
     25 C15        -0.4535    3.3838    3.7112 C.ar    1  UNK1        0.0434
     26 O5          0.1864    5.3207    0.5723 O.co2   1  UNK1       -0.5479
     27 C16         2.6286   -3.7793    3.8498 C.3     1  UNK1        0.0119
     28 C17        -6.4248    1.7876    3.0093 C.3     1  UNK1        0.0161
     29 C18        -7.7702    0.3233    1.4737 C.3     1  UNK1        0.0161
     30 C19         4.2362   -1.1287    3.4666 C.ar    1  UNK1       -0.0376
     31 C20         3.4497    0.1503    1.0887 C.ar    1  UNK1       -0.0523
     32 C21        -1.9230   -2.9216    3.3766 C.3     1  UNK1       -0.0446
     33 C22        -1.0926    3.5924    5.9428 C.ar    1  UNK1        0.0279
     34 C23        -1.7921    3.3201    3.3347 C.ar    1  UNK1       -0.0403
     35 C24        -2.2477   -4.3605    3.7917 C.3     1  UNK1       -0.0626
     36 C25        -1.1384   -2.2340    4.4940 C.3     1  UNK1       -0.0626
     37 C26        -7.7530    2.4607    3.3641 C.3     1  UNK1       -0.0371
     38 C27        -8.8680   -0.2465    2.3735 C.3     1  UNK1       -0.0371
     39 C28         4.4544    0.6983    1.8925 C.ar    1  UNK1       -0.0611
     40 C29         4.8368    0.0686    3.0699 C.ar    1  UNK1       -0.0598
     41 C30        -2.4384    3.5433    5.6372 C.ar    1  UNK1       -0.0436
     42 C31        -2.7901    3.3977    4.3058 C.ar    1  UNK1       -0.0586
     43 C32        -8.7245    1.6036    4.1786 C.3     1  UNK1       -0.0516
     44 C33        -8.7667    0.1116    3.8554 C.3     1  UNK1       -0.0516
     45 H           0.8987   -3.7576    1.6931 H       1  UNK1        0.0812
     46 H          -4.1482    1.0302    2.3167 H       1  UNK1        0.1510
     47 H          -0.5544   -0.6886    1.9592 H       1  UNK1        0.1495
     48 H          -0.9611    1.5980    1.2406 H       1  UNK1        0.1494
     49 H          -0.8805   -0.4965   -0.9903 H       1  UNK1        0.0598
     50 H          -2.3990   -0.1878    3.1812 H       1  UNK1        0.0595
     51 H           1.5216    3.0952    0.7831 H       1  UNK1        0.0564
     52 H           1.5569   -1.2312   -1.1097 H       1  UNK1        0.0337
     53 H           0.4205   -2.4685   -0.6090 H       1  UNK1        0.0337
     54 H           1.1923    4.3659    2.8313 H       1  UNK1        0.0350
     55 H           1.4397    2.6581    3.1467 H       1  UNK1        0.0350
     56 H          -3.7288   -2.7742    2.2346 H       1  UNK1        0.0290
     57 H          -3.8858   -2.1805    3.8836 H       1  UNK1        0.0290
     58 H           1.9334   -4.6086    3.6966 H       1  UNK1        0.0456
     59 H           2.4123   -3.2852    4.8004 H       1  UNK1        0.0456
     60 H           3.6562   -4.1520    3.8329 H       1  UNK1        0.0456
     61 H          -5.8067    2.5043    2.4562 H       1  UNK1        0.0465
     62 H          -5.8877    1.5350    3.9315 H       1  UNK1        0.0465
     63 H          -7.5943   -0.3754    0.6465 H       1  UNK1        0.0465
     64 H          -8.0974    1.2521    0.9938 H       1  UNK1        0.0465
     65 H           4.5456   -1.6177    4.3838 H       1  UNK1        0.0638
     66 H           3.1759    0.6614    0.1705 H       1  UNK1        0.0624
     67 H          -1.2874   -2.9841    2.4888 H       1  UNK1        0.0296
     68 H          -0.7559    3.7212    6.9667 H       1  UNK1        0.0829
     69 H          -2.0969    3.2466    2.2991 H       1  UNK1        0.0635
     70 H          -2.8697   -4.3842    4.6928 H       1  UNK1        0.0232
     71 H          -1.3295   -4.9213    3.9977 H       1  UNK1        0.0232
     72 H          -2.7841   -4.8851    2.9938 H       1  UNK1        0.0232
     73 H          -1.7617   -2.0844    5.3817 H       1  UNK1        0.0232
     74 H          -0.7537   -1.2601    4.1793 H       1  UNK1        0.0232
     75 H          -0.2739   -2.8385    4.7884 H       1  UNK1        0.0232
     76 H          -8.2555    2.8072    2.4538 H       1  UNK1        0.0280
     77 H          -7.5401    3.3726    3.9367 H       1  UNK1        0.0280
     78 H          -8.8426   -1.3412    2.2977 H       1  UNK1        0.0280
     79 H          -9.8449    0.0588    1.9789 H       1  UNK1        0.0280
     80 H           4.9256    1.6304    1.5905 H       1  UNK1        0.0618
     81 H           5.6115    0.5144    3.6878 H       1  UNK1        0.0618
     82 H          -3.1909    3.6332    6.4106 H       1  UNK1        0.0633
     83 H          -3.8330    3.3767    4.0078 H       1  UNK1        0.0619
     84 H          -9.7315    2.0251    4.0672 H       1  UNK1        0.0266
     85 H          -8.4747    1.7064    5.2426 H       1  UNK1        0.0266
     86 H          -7.8811   -0.3744    4.2842 H       1  UNK1        0.0266
     87 H          -9.6230   -0.3318    4.3795 H       1  UNK1        0.0266
@<TRIPOS>BOND
     1     2     4   ar
     2     3     9   am
     3     1     4   ar
     4     5    13    1
     5     1     6   ar
     6     7    11   am
     7     6     8   ar
     8     9    14    1
     9     3    10   am
    10    11    13    1
    11     5    12   am
    12    13    16    1
    13     7    14    1
    14    12    15    1
    15     1    16    1
    16    15    17    1
    17    15    18    1
    18     3    19    2
    19     7    20    2
    20     5    21    2
    21    22    25   ar
    22    17    23   ar
    23    14    24    1
    24    18    25    1
    25    17    26   ar
    26     2    27    1
    27    10    28    1
    28    10    29    1
    29     8    30   ar
    30     6    31   ar
    31    24    32    1
    32    22    33   ar
    33    25    34   ar
    34    32    35    1
    35    32    36    1
    36    28    37    1
    37    29    38    1
    38    31    39   ar
    39    39    40   ar
    40    41    42   ar
    41    34    42   ar
    42    37    43    1
    43    38    44    1
    44     2     8   ar
    45    30    40   ar
    46    33    41   ar
    47    43    44    1
    48     4    45    1
    49     9    46    1
    50    11    47    1
    51    12    48    1
    52    13    49    1
    53    14    50    1
    54    15    51    1
    55    16    52    1
    56    16    53    1
    57    18    54    1
    58    18    55    1
    59    24    56    1
    60    24    57    1
    61    27    58    1
    62    27    59    1
    63    27    60    1
    64    28    61    1
    65    28    62    1
    66    29    63    1
    67    29    64    1
    68    30    65    1
    69    31    66    1
    70    32    67    1
    71    33    68    1
    72    34    69    1
    73    35    70    1
    74    35    71    1
    75    35    72    1
    76    36    73    1
    77    36    74    1
    78    36    75    1
    79    37    76    1
    80    37    77    1
    81    38    78    1
    82    38    79    1
    83    39    80    1
    84    40    81    1
    85    41    82    1
    86    42    83    1
    87    43    84    1
    88    43    85    1
    89    44    86    1
    90    44    87    1
@<TRIPOS>MOLECULE
HTS1204-03362316-01
 87 90 0 0 0
SMALL
USER_CHARGES

@<TRIPOS>ATOM
      1 C1          1.7180   -1.7901    0.9406 C.ar    1  UNK1       -0.0199
      2 N1          2.4663   -2.7937    2.7913 N.ar    1  UNK1       -0.3494
      3 C2         -5.5233   -0.3461    2.0522 C.2     1  UNK1        0.3028
      4 C3          1.5692   -2.8916    1.7641 C.ar    1  UNK1        0.0086
      5 C4          0.3927    0.9659   -0.0519 C.2     1  UNK1        0.2342
      6 C5          2.8000   -1.0195    1.4847 C.ar    1  UNK1        0.0031
      7 C6         -2.4309   -0.6086    1.0606 C.2     1  UNK1        0.2340
      8 C7          3.2202   -1.6494    2.6611 C.ar    1  UNK1        0.0491
      9 N2         -4.3128    0.0991    2.5195 N.am    1  UNK1       -0.2879
     10 N3         -6.5498    0.5877    2.1735 N.am    1  UNK1       -0.2856
     11 N4         -1.0571   -0.7440    1.0678 N.am    1  UNK1       -0.3022
     12 N5          0.0434    1.6853    1.0771 N.am    1  UNK1       -0.3054
     13 C8         -0.2235   -0.4514   -0.1095 C.3     1  UNK1        0.1034
     14 C9         -3.0770   -0.6932    2.4682 C.3     1  UNK1        0.1011
     15 C10         0.5177    3.0735    1.2755 C.3     1  UNK1        0.0680
     16 C11         0.8975   -1.4980   -0.2931 C.3     1  UNK1        0.0013
     17 C12        -0.3923    4.1682    0.6475 C.2     1  UNK1        0.0623
     18 C13         0.7548    3.3864    2.7637 C.3     1  UNK1        0.0133
     19 O1         -5.7106   -1.4675    1.5906 O.2     1  UNK1       -0.2526
     20 O2         -3.0690   -0.4241    0.0292 O.2     1  UNK1       -0.2738
     21 O3          1.1679    1.3696   -0.9184 O.2     1  UNK1       -0.2738
     22 N6          0.0168    3.5705    5.0670 N.ar    1  UNK1       -0.2598
     23 O4         -1.5352    3.7550    0.2788 O.co2   1  UNK1       -0.5479
     24 C14        -3.2413   -2.1356    2.9813 C.3     1  UNK1       -0.0236
     25 C15        -0.3758    3.3830    3.7745 C.ar    1  UNK1        0.0434
     26 O5          0.0855    5.3363    0.6283 O.co2   1  UNK1       -0.5479
     27 C16         2.6121   -3.7607    3.8551 C.3     1  UNK1        0.0119
     28 C17        -7.7888    0.3030    1.4500 C.3     1  UNK1        0.0161
     29 C18        -6.5075    1.7474    3.0618 C.3     1  UNK1        0.0161
     30 C19         4.2372   -1.1201    3.4742 C.ar    1  UNK1       -0.0376
     31 C20         3.4600    0.1653    1.0961 C.ar    1  UNK1       -0.0523
     32 C21        -1.9451   -2.8763    3.3687 C.3     1  UNK1       -0.0446
     33 C22        -0.9359    3.6490    6.0215 C.ar    1  UNK1        0.0279
     34 C23        -1.7227    3.2367    3.4570 C.ar    1  UNK1       -0.0403
     35 C24        -2.2774   -4.3112    3.7920 C.3     1  UNK1       -0.0626
     36 C25        -1.1698   -2.1821    4.4885 C.3     1  UNK1       -0.0626
     37 C26        -8.8542    1.4014    1.4778 C.3     1  UNK1       -0.0371
     38 C27        -6.3411    3.0675    2.3142 C.3     1  UNK1       -0.0371
     39 C28         4.4670    0.7069    1.9014 C.ar    1  UNK1       -0.0611
     40 C29         4.8449    0.0740    3.0785 C.ar    1  UNK1       -0.0598
     41 C30        -2.2884    3.5212    5.7744 C.ar    1  UNK1       -0.0436
     42 C31        -2.6836    3.3047    4.4662 C.ar    1  UNK1       -0.0586
     43 C32        -8.4504    2.7396    0.8524 C.3     1  UNK1       -0.0516
     44 C33        -6.9744    3.1228    0.9256 C.3     1  UNK1       -0.0516
     45 H           0.8867   -3.7288    1.6948 H       1  UNK1        0.0812
     46 H          -4.1703    1.0693    2.2735 H       1  UNK1        0.1510
     47 H          -0.5628   -0.6663    1.9490 H       1  UNK1        0.1495
     48 H          -0.9498    1.6062    1.2560 H       1  UNK1        0.1494
     49 H          -0.8610   -0.4619   -1.0019 H       1  UNK1        0.0598
     50 H          -2.4169   -0.1425    3.1479 H       1  UNK1        0.0595
     51 H           1.4884    3.1530    0.7667 H       1  UNK1        0.0564
     52 H           1.5721   -1.2024   -1.1062 H       1  UNK1        0.0337
     53 H           0.4311   -2.4395   -0.6153 H       1  UNK1        0.0337
     54 H           1.2356    4.3711    2.8411 H       1  UNK1        0.0350
     55 H           1.4934    2.6602    3.1334 H       1  UNK1        0.0350
     56 H          -3.7412   -2.7346    2.2102 H       1  UNK1        0.0290
     57 H          -3.9101   -2.1281    3.8528 H       1  UNK1        0.0290
     58 H           1.9148   -4.5875    3.6987 H       1  UNK1        0.0456
     59 H           2.3939   -3.2662    4.8049 H       1  UNK1        0.0456
     60 H           3.6385   -4.1372    3.8422 H       1  UNK1        0.0456
     61 H          -8.2128   -0.6092    1.8879 H       1  UNK1        0.0465
     62 H          -7.5274    0.0628    0.4117 H       1  UNK1        0.0465
     63 H          -5.6989    1.6425    3.7940 H       1  UNK1        0.0465
     64 H          -7.4207    1.7516    3.6669 H       1  UNK1        0.0465
     65 H           4.5428   -1.6112    4.3914 H       1  UNK1        0.0638
     66 H           3.1892    0.6785    0.1784 H       1  UNK1        0.0624
     67 H          -1.3014   -2.9470    2.4875 H       1  UNK1        0.0296
     68 H          -0.5664    3.8345    7.0248 H       1  UNK1        0.0829
     69 H          -2.0645    3.1061    2.4390 H       1  UNK1        0.0635
     70 H          -2.9079   -4.3263    4.6874 H       1  UNK1        0.0232
     71 H          -1.3627   -4.8727    4.0110 H       1  UNK1        0.0232
     72 H          -2.8079   -4.8406    2.9934 H       1  UNK1        0.0232
     73 H          -1.7994   -2.0302    5.3713 H       1  UNK1        0.0232
     74 H          -0.7850   -1.2087    4.1726 H       1  UNK1        0.0232
     75 H          -0.3060   -2.7837    4.7912 H       1  UNK1        0.0232
     76 H          -9.1862    1.5725    2.5086 H       1  UNK1        0.0280
     77 H          -9.7459    1.0352    0.9529 H       1  UNK1        0.0280
     78 H          -5.2694    3.2688    2.1923 H       1  UNK1        0.0280
     79 H          -6.7322    3.8801    2.9384 H       1  UNK1        0.0280
     80 H           4.9434    1.6368    1.6007 H       1  UNK1        0.0618
     81 H           5.6217    0.5151    3.6974 H       1  UNK1        0.0618
     82 H          -3.0140    3.6043    6.5736 H       1  UNK1        0.0633
     83 H          -3.7351    3.2169    4.2137 H       1  UNK1        0.0619
     84 H          -9.0538    3.5326    1.3121 H       1  UNK1        0.0266
     85 H          -8.7358    2.7258   -0.2074 H       1  UNK1        0.0266
     86 H          -6.4023    2.4824    0.2423 H       1  UNK1        0.0266
     87 H          -6.8600    4.1418    0.5336 H       1  UNK1        0.0266
@<TRIPOS>BOND
     1     2     4   ar
     2     3     9   am
     3     1     4   ar
     4     5    13    1
     5     1     6   ar
     6     7    11   am
     7     6     8   ar
     8     9    14    1
     9     3    10   am
    10    11    13    1
    11     5    12   am
    12    13    16    1
    13     7    14    1
    14    12    15    1
    15     1    16    1
    16    15    17    1
    17    15    18    1
    18     3    19    2
    19     7    20    2
    20     5    21    2
    21    22    25   ar
    22    17    23   ar
    23    14    24    1
    24    18    25    1
    25    17    26   ar
    26     2    27    1
    27    10    28    1
    28    10    29    1
    29     8    30   ar
    30     6    31   ar
    31    24    32    1
    32    22    33   ar
    33    25    34   ar
    34    32    35    1
    35    32    36    1
    36    28    37    1
    37    29    38    1
    38    31    39   ar
    39    39    40   ar
    40    41    42   ar
    41    34    42   ar
    42    37    43    1
    43    38    44    1
    44     2     8   ar
    45    30    40   ar
    46    33    41   ar
    47    43    44    1
    48     4    45    1
    49     9    46    1
    50    11    47    1
    51    12    48    1
    52    13    49    1
    53    14    50    1
    54    15    51    1
    55    16    52    1
    56    16    53    1
    57    18    54    1
    58    18    55    1
    59    24    56    1
    60    24    57    1
    61    27    58    1
    62    27    59    1
    63    27    60    1
    64    28    61    1
    65    28    62    1
    66    29    63    1
    67    29    64    1
    68    30    65    1
    69    31    66    1
    70    32    67    1
    71    33    68    1
    72    34    69    1
    73    35    70    1
    74    35    71    1
    75    35    72    1
    76    36    73    1
    77    36    74    1
    78    36    75    1
    79    37    76    1
    80    37    77    1
    81    38    78    1
    82    38    79    1
    83    39    80    1
    84    40    81    1
    85    41    82    1
    86    42    83    1
    87    43    84    1
    88    43    85    1
    89    44    86    1
    90    44    87    1
@<TRIPOS>MOLECULE
HTS1204-03362316-01
 87 90 0 0 0
SMALL
USER_CHARGES

@<TRIPOS>ATOM
      1 C1          1.7163   -1.7771    0.9453 C.ar    1  UNK1       -0.0199
      2 N1          3.0923   -1.4469    2.6757 N.ar    1  UNK1       -0.3494
      3 C2         -4.2560   -1.9157    2.4791 C.2     1  UNK1        0.3028
      4 C3          2.1318   -0.8666    1.8924 C.ar    1  UNK1        0.0086
      5 C4          0.6568    0.9151   -0.6004 C.2     1  UNK1        0.2342
      6 C5          2.5464   -2.9389    1.1199 C.ar    1  UNK1        0.0031
      7 C6         -1.2292    0.1677    2.0774 C.2     1  UNK1        0.2340
      8 C7          3.3928   -2.7066    2.2074 C.ar    1  UNK1        0.0491
      9 N2         -2.9422   -1.5450    2.4496 N.am    1  UNK1       -0.2879
     10 N3         -4.5092   -3.1781    1.9566 N.am    1  UNK1       -0.2856
     11 N4         -1.2665   -0.2957    0.7812 N.am    1  UNK1       -0.3022
     12 N5          0.1743    2.1041   -0.1125 N.am    1  UNK1       -0.3054
     13 C8         -0.1629   -0.3339   -0.1909 C.3     1  UNK1        0.1034
     14 C9         -2.4887   -0.2227    2.8864 C.3     1  UNK1        0.1011
     15 C10         0.7777    3.4213   -0.4405 C.3     1  UNK1        0.0680
     16 C11         0.6880   -1.6165   -0.1328 C.3     1  UNK1        0.0013
     17 C12         2.1141    3.7145    0.3267 C.2     1  UNK1        0.0623
     18 C13         0.9415    3.7159   -1.9422 C.3     1  UNK1        0.0133
     19 O1         -5.1403   -1.1823    2.9102 O.2     1  UNK1       -0.2526
     20 O2         -0.3865    0.9501    2.4924 O.2     1  UNK1       -0.2738
     21 O3          1.5516    0.8212   -1.4412 O.2     1  UNK1       -0.2738
     22 N6         -1.5316    3.5873   -2.2551 N.ar    1  UNK1       -0.2598
     23 O4          2.1403    3.2956    1.5251 O.co2   1  UNK1       -0.5479
     24 C14        -2.3238   -0.1050    4.4113 C.3     1  UNK1       -0.0236
     25 C15        -0.3020    3.7044   -2.8134 C.ar    1  UNK1        0.0434
     26 O5          2.9929    4.3883   -0.2866 O.co2   1  UNK1       -0.5479
     27 C16         3.7180   -0.7987    3.8056 C.3     1  UNK1        0.0119
     28 C17        -5.8795   -3.6794    2.0855 C.3     1  UNK1        0.0161
     29 C18        -3.5368   -3.9987    1.2364 C.3     1  UNK1        0.0161
     30 C19         4.3471   -3.6474    2.6282 C.ar    1  UNK1       -0.0376
     31 C20         2.6686   -4.1600    0.4210 C.ar    1  UNK1       -0.0523
     32 C21        -1.6008   -1.2618    5.1372 C.3     1  UNK1       -0.0446
     33 C22        -2.6015    3.6188   -3.0775 C.ar    1  UNK1        0.0279
     34 C23        -0.1393    3.8823   -4.1900 C.ar    1  UNK1       -0.0403
     35 C24        -1.5662   -0.9772    6.6432 C.3     1  UNK1       -0.0626
     36 C25        -0.1794   -1.5055    4.6372 C.3     1  UNK1       -0.0626
     37 C26        -6.0882   -5.1546    1.7352 C.3     1  UNK1       -0.0371
     38 C27        -2.9788   -5.1246    2.1043 C.3     1  UNK1       -0.0371
     39 C28         3.6272   -5.0978    0.8204 C.ar    1  UNK1       -0.0611
     40 C29         4.4526   -4.8431    1.9110 C.ar    1  UNK1       -0.0598
     41 C30        -2.5205    3.7877   -4.4489 C.ar    1  UNK1       -0.0436
     42 C31        -1.2609    3.9269   -5.0140 C.ar    1  UNK1       -0.0586
     43 C32        -5.3052   -6.1558    2.5903 C.3     1  UNK1       -0.0516
     44 C33        -3.9526   -5.6987    3.1343 C.3     1  UNK1       -0.0516
     45 H           1.8381    0.1623    2.0725 H       1  UNK1        0.0812
     46 H          -2.2654   -2.2842    2.5526 H       1  UNK1        0.1510
     47 H          -2.0745   -0.8638    0.5637 H       1  UNK1        0.1495
     48 H          -0.0857    2.0420    0.8711 H       1  UNK1        0.1494
     49 H          -0.7519   -0.4732   -1.1136 H       1  UNK1        0.0598
     50 H          -3.2546    0.5044    2.5828 H       1  UNK1        0.0595
     51 H           0.0606    4.1480   -0.0340 H       1  UNK1        0.0564
     52 H           1.2113   -1.7312   -1.0922 H       1  UNK1        0.0337
     53 H           0.0028   -2.4733   -0.0595 H       1  UNK1        0.0337
     54 H           1.6718    3.0275   -2.3834 H       1  UNK1        0.0350
     55 H           1.3655    4.7223   -2.0602 H       1  UNK1        0.0350
     56 H          -3.3304   -0.0300    4.8459 H       1  UNK1        0.0290
     57 H          -1.8244    0.8428    4.6509 H       1  UNK1        0.0290
     58 H           3.2075    0.1435    4.0206 H       1  UNK1        0.0456
     59 H           4.7663   -0.6129    3.5611 H       1  UNK1        0.0456
     60 H           3.6353   -1.4609    4.6722 H       1  UNK1        0.0456
     61 H          -6.5034   -3.0664    1.4232 H       1  UNK1        0.0465
     62 H          -6.2230   -3.4906    3.1099 H       1  UNK1        0.0465
     63 H          -2.7081   -3.3869    0.8622 H       1  UNK1        0.0465
     64 H          -4.0095   -4.3924    0.3313 H       1  UNK1        0.0465
     65 H           5.0054   -3.4455    3.4663 H       1  UNK1        0.0638
     66 H           2.0438   -4.3567   -0.4442 H       1  UNK1        0.0624
     67 H          -2.1756   -2.1852    4.9935 H       1  UNK1        0.0296
     68 H          -3.5605    3.5040   -2.5821 H       1  UNK1        0.0829
     69 H           0.8564    3.9945   -4.6091 H       1  UNK1        0.0635
     70 H          -0.9976   -0.0667    6.8623 H       1  UNK1        0.0232
     71 H          -1.0991   -1.8058    7.1862 H       1  UNK1        0.0232
     72 H          -2.5788   -0.8491    7.0398 H       1  UNK1        0.0232
     73 H           0.4226   -0.5925    4.6894 H       1  UNK1        0.0232
     74 H          -0.1805   -1.8674    3.6061 H       1  UNK1        0.0232
     75 H           0.3213   -2.2701    5.2413 H       1  UNK1        0.0232
     76 H          -5.8551   -5.3259    0.6777 H       1  UNK1        0.0280
     77 H          -7.1569   -5.3874    1.8264 H       1  UNK1        0.0280
     78 H          -2.1068   -4.7447    2.6524 H       1  UNK1        0.0280
     79 H          -2.6043   -5.9239    1.4539 H       1  UNK1        0.0280
     80 H           3.7358   -6.0240    0.2628 H       1  UNK1        0.0618
     81 H           5.2016   -5.5753    2.2020 H       1  UNK1        0.0618
     82 H          -3.4156    3.8142   -5.0577 H       1  UNK1        0.0633
     83 H          -1.1465    4.0720   -6.0833 H       1  UNK1        0.0619
     84 H          -5.1687   -7.0758    2.0080 H       1  UNK1        0.0266
     85 H          -5.9287   -6.4364    3.4489 H       1  UNK1        0.0266
     86 H          -4.1177   -4.9573    3.9270 H       1  UNK1        0.0266
     87 H          -3.4708   -6.5505    3.6304 H       1  UNK1        0.0266
@<TRIPOS>BOND
     1     2     4   ar
     2     3     9   am
     3     1     4   ar
     4     5    13    1
     5     1     6   ar
     6     7    11   am
     7     6     8   ar
     8     9    14    1
     9     3    10   am
    10    11    13    1
    11     5    12   am
    12    13    16    1
    13     7    14    1
    14    12    15    1
    15     1    16    1
    16    15    17    1
    17    15    18    1
    18     3    19    2
    19     7    20    2
    20     5    21    2
    21    22    25   ar
    22    17    23   ar
    23    14    24    1
    24    18    25    1
    25    17    26   ar
    26     2    27    1
    27    10    28    1
    28    10    29    1
    29     8    30   ar
    30     6    31   ar
    31    24    32    1
    32    22    33   ar
    33    25    34   ar
    34    32    35    1
    35    32    36    1
    36    28    37    1
    37    29    38    1
    38    31    39   ar
    39    39    40   ar
    40    41    42   ar
    41    34    42   ar
    42    37    43    1
    43    38    44    1
    44     2     8   ar
    45    30    40   ar
    46    33    41   ar
    47    43    44    1
    48     4    45    1
    49     9    46    1
    50    11    47    1
    51    12    48    1
    52    13    49    1
    53    14    50    1
    54    15    51    1
    55    16    52    1
    56    16    53    1
    57    18    54    1
    58    18    55    1
    59    24    56    1
    60    24    57    1
    61    27    58    1
    62    27    59    1
    63    27    60    1
    64    28    61    1
    65    28    62    1
    66    29    63    1
    67    29    64    1
    68    30    65    1
    69    31    66    1
    70    32    67    1
    71    33    68    1
    72    34    69    1
    73    35    70    1
    74    35    71    1
    75    35    72    1
    76    36    73    1
    77    36    74    1
    78    36    75    1
    79    37    76    1
    80    37    77    1
    81    38    78    1
    82    38    79    1
    83    39    80    1
    84    40    81    1
    85    41    82    1
    86    42    83    1
    87    43    84    1
    88    43    85    1
    89    44    86    1
    90    44    87    1
@<TRIPOS>MOLECULE
HTS1204-03362316-01
 87 90 0 0 0
SMALL
USER_CHARGES

@<TRIPOS>ATOM
      1 C1          1.7461   -1.9588   -1.4832 C.ar    1  UNK1       -0.0199
      2 N1          3.4799   -1.8732   -2.8800 N.ar    1  UNK1       -0.3494
      3 C2          0.9728    0.2208    4.0956 C.2     1  UNK1        0.3028
      4 C3          3.1227   -2.0096   -1.5688 C.ar    1  UNK1        0.0086
      5 C4          0.8873    0.7231    0.2032 C.2     1  UNK1        0.2342
      6 C5          1.2491   -1.9253   -2.8260 C.ar    1  UNK1        0.0031
      7 C6         -1.0233   -1.2965    2.2499 C.2     1  UNK1        0.2340
      8 C7          2.3573   -1.8542   -3.6782 C.ar    1  UNK1        0.0491
      9 N2          1.2398   -0.8541    3.2815 N.am    1  UNK1       -0.2879
     10 N3          2.0837    1.0232    4.3140 N.am    1  UNK1       -0.2856
     11 N4         -0.9537   -0.7920    0.9847 N.am    1  UNK1       -0.3022
     12 N5          1.6789    1.1043   -0.8526 N.am    1  UNK1       -0.3054
     13 C8          0.1335   -0.6185   -0.0035 C.3     1  UNK1        0.1034
     14 C9          0.2270   -1.8565    2.9749 C.3     1  UNK1        0.1011
     15 C10         2.4219    2.3867   -0.9332 C.3     1  UNK1        0.0680
     16 C11         0.9943   -1.8749   -0.1935 C.3     1  UNK1        0.0013
     17 C12         3.9669    2.1551   -0.9708 C.2     1  UNK1        0.0623
     18 C13         2.1460    3.0937   -2.2740 C.3     1  UNK1        0.0133
     19 O1         -0.1352    0.4613    4.5568 O.2     1  UNK1       -0.2526
     20 O2         -2.1569   -1.3840    2.7344 O.2     1  UNK1       -0.2738
     21 O3          0.6723    1.4487    1.1699 O.2     1  UNK1       -0.2738
     22 N6          0.8159    5.0916   -2.7621 N.ar    1  UNK1       -0.2598
     23 O4          4.3149    0.9790   -1.3044 O.co2   1  UNK1       -0.5479
     24 C14        -0.1329   -2.7438    4.1858 C.3     1  UNK1       -0.0236
     25 C15         0.8014    3.7858   -2.3867 C.ar    1  UNK1        0.0434
     26 O5          4.6916    3.1423   -0.6699 O.co2   1  UNK1       -0.5479
     27 C16         4.8397   -1.6808   -3.3319 C.3     1  UNK1        0.0119
     28 C17         1.8507    2.4356    4.6024 C.3     1  UNK1        0.0161
     29 C18         3.4288    0.4800    4.4589 C.3     1  UNK1        0.0161
     30 C19         2.2264   -1.7396   -5.0710 C.ar    1  UNK1       -0.0376
     31 C20        -0.0402   -1.8895   -3.3991 C.ar    1  UNK1       -0.0523
     32 C21         0.8958   -3.8449    4.5488 C.3     1  UNK1       -0.0446
     33 C22        -0.3698    5.7225   -2.9028 C.ar    1  UNK1        0.0279
     34 C23        -0.3974    3.1024   -2.1930 C.ar    1  UNK1       -0.0403
     35 C24         2.2064   -3.2891    5.0995 C.3     1  UNK1       -0.0626
     36 C25         1.1832   -4.8047    3.3893 C.3     1  UNK1       -0.0626
     37 C26         3.1016    3.2975    4.7940 C.3     1  UNK1       -0.0371
     38 C27         4.3591    0.8289    3.3065 C.3     1  UNK1       -0.0371
     39 C28        -0.1811   -1.7730   -4.7871 C.ar    1  UNK1       -0.0611
     40 C29         0.9383   -1.6976   -5.6091 C.ar    1  UNK1       -0.0598
     41 C30        -1.5966    5.1178   -2.6991 C.ar    1  UNK1       -0.0436
     42 C31        -1.6068    3.7793   -2.3371 C.ar    1  UNK1       -0.0586
     43 C32         4.0600    3.3843    3.6021 C.3     1  UNK1       -0.0516
     44 C33         4.1170    2.1869    2.6594 C.3     1  UNK1       -0.0516
     45 H           3.8776   -2.0018   -0.7912 H       1  UNK1        0.0812
     46 H           1.8789   -0.5879    2.5453 H       1  UNK1        0.1510
     47 H          -1.8278   -0.3410    0.7443 H       1  UNK1        0.1495
     48 H           2.1713    0.3851   -1.3769 H       1  UNK1        0.1494
     49 H          -0.4309   -0.4553   -0.9311 H       1  UNK1        0.0598
     50 H           0.6888   -2.5223    2.2503 H       1  UNK1        0.0595
     51 H           2.1613    3.0228   -0.0807 H       1  UNK1        0.0564
     52 H           0.3664   -2.7719   -0.1164 H       1  UNK1        0.0337
     53 H           1.7348   -1.9265    0.6115 H       1  UNK1        0.0337
     54 H           2.2172    2.3749   -3.1025 H       1  UNK1        0.0350
     55 H           2.9162    3.8526   -2.4668 H       1  UNK1        0.0350
     56 H          -1.0781   -3.2623    3.9772 H       1  UNK1        0.0290
     57 H          -0.3223   -2.1262    5.0719 H       1  UNK1        0.0290
     58 H           5.5167   -1.6778   -2.4737 H       1  UNK1        0.0456
     59 H           4.9007   -0.7242   -3.8558 H       1  UNK1        0.0456
     60 H           5.0975   -2.5070   -3.9998 H       1  UNK1        0.0456
     61 H           1.2443    2.4883    5.5146 H       1  UNK1        0.0465
     62 H           1.2338    2.8428    3.7916 H       1  UNK1        0.0465
     63 H           3.3845   -0.6082    4.5626 H       1  UNK1        0.0465
     64 H           3.8382    0.8293    5.4130 H       1  UNK1        0.0465
     65 H           3.0979   -1.6620   -5.7127 H       1  UNK1        0.0638
     66 H          -0.9250   -1.9364   -2.7718 H       1  UNK1        0.0624
     67 H           0.4371   -4.4390    5.3509 H       1  UNK1        0.0296
     68 H          -0.3010    6.7654   -3.1962 H       1  UNK1        0.0829
     69 H          -0.4043    2.0519   -1.9346 H       1  UNK1        0.0635
     70 H           2.8025   -2.8125    4.3165 H       1  UNK1        0.0232
     71 H           2.8158   -4.0966    5.5213 H       1  UNK1        0.0232
     72 H           2.0228   -2.5606    5.8953 H       1  UNK1        0.0232
     73 H           1.8004   -4.3395    2.6134 H       1  UNK1        0.0232
     74 H           0.2546   -5.1528    2.9252 H       1  UNK1        0.0232
     75 H           1.7296   -5.6835    3.7470 H       1  UNK1        0.0232
     76 H           3.6576    2.9476    5.6715 H       1  UNK1        0.0280
     77 H           2.7857    4.3172    5.0489 H       1  UNK1        0.0280
     78 H           4.2525    0.0654    2.5254 H       1  UNK1        0.0280
     79 H           5.3963    0.7587    3.6569 H       1  UNK1        0.0280
     80 H          -1.1747   -1.7275   -5.2239 H       1  UNK1        0.0618
     81 H           0.8138   -1.5908   -6.6834 H       1  UNK1        0.0618
     82 H          -2.5175    5.6738   -2.8208 H       1  UNK1        0.0633
     83 H          -2.5447    3.2598   -2.1662 H       1  UNK1        0.0619
     84 H           5.0683    3.5910    3.9834 H       1  UNK1        0.0266
     85 H           3.7858    4.2613    3.0009 H       1  UNK1        0.0266
     86 H           3.1882    2.1461    2.0806 H       1  UNK1        0.0266
     87 H           4.9165    2.3604    1.9304 H       1  UNK1        0.0266
@<TRIPOS>BOND
     1     2     4   ar
     2     3     9   am
     3     1     4   ar
     4     5    13    1
     5     1     6   ar
     6     7    11   am
     7     6     8   ar
     8     9    14    1
     9     3    10   am
    10    11    13    1
    11     5    12   am
    12    13    16    1
    13     7    14    1
    14    12    15    1
    15     1    16    1
    16    15    17    1
    17    15    18    1
    18     3    19    2
    19     7    20    2
    20     5    21    2
    21    22    25   ar
    22    17    23   ar
    23    14    24    1
    24    18    25    1
    25    17    26   ar
    26     2    27    1
    27    10    28    1
    28    10    29    1
    29     8    30   ar
    30     6    31   ar
    31    24    32    1
    32    22    33   ar
    33    25    34   ar
    34    32    35    1
    35    32    36    1
    36    28    37    1
    37    29    38    1
    38    31    39   ar
    39    39    40   ar
    40    41    42   ar
    41    34    42   ar
    42    37    43    1
    43    38    44    1
    44     2     8   ar
    45    30    40   ar
    46    33    41   ar
    47    43    44    1
    48     4    45    1
    49     9    46    1
    50    11    47    1
    51    12    48    1
    52    13    49    1
    53    14    50    1
    54    15    51    1
    55    16    52    1
    56    16    53    1
    57    18    54    1
    58    18    55    1
    59    24    56    1
    60    24    57    1
    61    27    58    1
    62    27    59    1
    63    27    60    1
    64    28    61    1
    65    28    62    1
    66    29    63    1
    67    29    64    1
    68    30    65    1
    69    31    66    1
    70    32    67    1
    71    33    68    1
    72    34    69    1
    73    35    70    1
    74    35    71    1
    75    35    72    1
    76    36    73    1
    77    36    74    1
    78    36    75    1
    79    37    76    1
    80    37    77    1
    81    38    78    1
    82    38    79    1
    83    39    80    1
    84    40    81    1
    85    41    82    1
    86    42    83    1
    87    43    84    1
    88    43    85    1
    89    44    86    1
    90    44    87    1
@<TRIPOS>MOLECULE
HTS1204-03362316-01
 87 90 0 0 0
SMALL
USER_CHARGES

@<TRIPOS>ATOM
      1 C1          1.6052   -1.9889    1.2781 C.ar    1  UNK1       -0.0199
      2 N1          3.1208   -1.7027    2.8880 N.ar    1  UNK1       -0.3494
      3 C2         -3.0171   -1.6226   -1.2200 C.2     1  UNK1        0.3028
      4 C3          2.2096   -1.0593    2.0973 C.ar    1  UNK1        0.0086
      5 C4          0.6618    0.8575    0.1083 C.2     1  UNK1        0.2342
      6 C5          2.1914   -3.2565    1.5974 C.ar    1  UNK1        0.0031
      7 C6         -2.4212    0.0415    1.2991 C.2     1  UNK1        0.2340
      8 C7          3.1274   -3.0514    2.6127 C.ar    1  UNK1        0.0491
      9 N2         -2.9569   -0.2527   -1.1888 N.am    1  UNK1       -0.2879
     10 N3         -2.8173   -2.1343   -2.5000 N.am    1  UNK1       -0.2856
     11 N4         -1.1317   -0.4048    1.2820 N.am    1  UNK1       -0.3022
     12 N5          1.4687    1.0857   -0.9638 N.am    1  UNK1       -0.3054
     13 C8         -0.1716   -0.4476    0.1689 C.3     1  UNK1        0.1034
     14 C9         -3.0665    0.5932   -0.0040 C.3     1  UNK1        0.1011
     15 C10         1.7319    0.2484   -2.1510 C.3     1  UNK1        0.0680
     16 C11         0.5799   -1.7827    0.2082 C.3     1  UNK1        0.0013
     17 C12         1.3771    0.8893   -3.5244 C.2     1  UNK1        0.0623
     18 C13         3.1313   -0.3808   -2.0871 C.3     1  UNK1        0.0133
     19 O1         -3.1338   -2.3288   -0.2209 O.2     1  UNK1       -0.2526
     20 O2         -2.9902    0.1087    2.3937 O.2     1  UNK1       -0.2738
     21 O3          0.5709    1.7255    0.9837 O.2     1  UNK1       -0.2738
     22 N6          4.1406    1.8648   -1.8630 N.ar    1  UNK1       -0.2598
     23 O4          1.7813    2.0610   -3.7468 O.co2   1  UNK1       -0.5479
     24 C14        -4.4951    1.1233    0.2222 C.3     1  UNK1       -0.0236
     25 C15         4.3319    0.5346   -1.9863 C.ar    1  UNK1        0.0434
     26 O5          0.6247    0.1608   -4.2458 O.co2   1  UNK1       -0.5479
     27 C16         3.9617   -1.0368    3.8551 C.3     1  UNK1        0.0119
     28 C17        -3.2001   -1.3971   -3.7113 C.3     1  UNK1        0.0161
     29 C18        -2.3476   -3.5012   -2.6538 C.3     1  UNK1        0.0161
     30 C19         3.8753   -4.1061    3.1574 C.ar    1  UNK1       -0.0376
     31 C20         2.0048   -4.5619    1.0954 C.ar    1  UNK1       -0.0523
     32 C21        -4.9987    2.1251   -0.8481 C.3     1  UNK1       -0.0446
     33 C22         5.2189    2.6699   -1.9128 C.ar    1  UNK1        0.0279
     34 C23         5.6127   -0.0175   -2.0204 C.ar    1  UNK1       -0.0403
     35 C24        -6.2940    2.7893   -0.3717 C.3     1  UNK1       -0.0626
     36 C25        -5.2431    1.4879   -2.2145 C.3     1  UNK1       -0.0626
     37 C26        -3.5314   -2.2514   -4.9353 C.3     1  UNK1       -0.0371
     38 C27        -3.4815   -4.5089   -2.8290 C.3     1  UNK1       -0.0371
     39 C28         2.7457   -5.6194    1.6283 C.ar    1  UNK1       -0.0611
     40 C29         3.6647   -5.3920    2.6482 C.ar    1  UNK1       -0.0598
     41 C30         6.5182    2.2050   -1.9921 C.ar    1  UNK1       -0.0436
     42 C31         6.7177    0.8310   -2.0185 C.ar    1  UNK1       -0.0586
     43 C32        -4.6842   -3.2401   -4.7423 C.3     1  UNK1       -0.0516
     44 C33        -4.7849   -3.9369   -3.3854 C.3     1  UNK1       -0.0516
     45 H           2.0840    0.0132    2.1758 H       1  UNK1        0.0812
     46 H          -2.5170    0.1774   -1.9907 H       1  UNK1        0.1510
     47 H          -0.7672   -0.6161    2.2013 H       1  UNK1        0.1495
     48 H           1.9625    1.9754   -0.9921 H       1  UNK1        0.1494
     49 H          -0.7285   -0.4397   -0.7620 H       1  UNK1        0.0598
     50 H          -2.4477    1.4709   -0.2415 H       1  UNK1        0.0595
     51 H           1.0261   -0.5818   -2.1059 H       1  UNK1        0.0564
     52 H           1.0704   -1.9942   -0.7441 H       1  UNK1        0.0337
     53 H          -0.1711   -2.5801    0.3095 H       1  UNK1        0.0337
     54 H           3.2689   -1.0210   -2.9674 H       1  UNK1        0.0350
     55 H           3.1755   -1.0364   -1.2071 H       1  UNK1        0.0350
     56 H          -4.5120    1.6536    1.1843 H       1  UNK1        0.0290
     57 H          -5.1974    0.2869    0.3206 H       1  UNK1        0.0290
     58 H           3.7672    0.0391    3.8316 H       1  UNK1        0.0456
     59 H           5.0057   -1.2263    3.5947 H       1  UNK1        0.0456
     60 H           3.7266   -1.4328    4.8455 H       1  UNK1        0.0456
     61 H          -2.3769   -0.7170   -3.9592 H       1  UNK1        0.0465
     62 H          -4.0770   -0.7885   -3.4736 H       1  UNK1        0.0465
     63 H          -1.7457   -3.7814   -1.7809 H       1  UNK1        0.0465
     64 H          -1.6548   -3.5380   -3.5029 H       1  UNK1        0.0465
     65 H           4.5961   -3.9357    3.9491 H       1  UNK1        0.0638
     66 H           1.2871   -4.7444    0.3005 H       1  UNK1        0.0624
     67 H          -4.2503    2.9187   -0.9720 H       1  UNK1        0.0296
     68 H           4.9925    3.7313   -1.9026 H       1  UNK1        0.0829
     69 H           5.7474   -1.0931   -2.0665 H       1  UNK1        0.0635
     70 H          -7.0765    2.0455   -0.1894 H       1  UNK1        0.0232
     71 H          -6.6667    3.4974   -1.1203 H       1  UNK1        0.0232
     72 H          -6.1271    3.3486    0.5544 H       1  UNK1        0.0232
     73 H          -5.7775    0.5367   -2.1223 H       1  UNK1        0.0232
     74 H          -4.2988    1.3173   -2.7359 H       1  UNK1        0.0232
     75 H          -5.8330    2.1439   -2.8635 H       1  UNK1        0.0232
     76 H          -2.6401   -2.7915   -5.2729 H       1  UNK1        0.0280
     77 H          -3.7928   -1.5811   -5.7649 H       1  UNK1        0.0280
     78 H          -3.7038   -4.9465   -1.8474 H       1  UNK1        0.0280
     79 H          -3.1325   -5.3381   -3.4562 H       1  UNK1        0.0280
     80 H           2.5965   -6.6238    1.2419 H       1  UNK1        0.0618
     81 H           4.2298   -6.2263    3.0550 H       1  UNK1        0.0618
     82 H           7.3484    2.8981   -2.0397 H       1  UNK1        0.0633
     83 H           7.7216    0.4222   -2.0646 H       1  UNK1        0.0619
     84 H          -4.6190   -3.9987   -5.5320 H       1  UNK1        0.0266
     85 H          -5.6308   -2.7109   -4.9130 H       1  UNK1        0.0266
     86 H          -5.2114   -3.2380   -2.6543 H       1  UNK1        0.0266
     87 H          -5.5158   -4.7507   -3.4665 H       1  UNK1        0.0266
@<TRIPOS>BOND
     1     2     4   ar
     2     3     9   am
     3     1     4   ar
     4     5    13    1
     5     1     6   ar
     6     7    11   am
     7     6     8   ar
     8     9    14    1
     9     3    10   am
    10    11    13    1
    11     5    12   am
    12    13    16    1
    13     7    14    1
    14    12    15    1
    15     1    16    1
    16    15    17    1
    17    15    18    1
    18     3    19    2
    19     7    20    2
    20     5    21    2
    21    22    25   ar
    22    17    23   ar
    23    14    24    1
    24    18    25    1
    25    17    26   ar
    26     2    27    1
    27    10    28    1
    28    10    29    1
    29     8    30   ar
    30     6    31   ar
    31    24    32    1
    32    22    33   ar
    33    25    34   ar
    34    32    35    1
    35    32    36    1
    36    28    37    1
    37    29    38    1
    38    31    39   ar
    39    39    40   ar
    40    41    42   ar
    41    34    42   ar
    42    37    43    1
    43    38    44    1
    44     2     8   ar
    45    30    40   ar
    46    33    41   ar
    47    43    44    1
    48     4    45    1
    49     9    46    1
    50    11    47    1
    51    12    48    1
    52    13    49    1
    53    14    50    1
    54    15    51    1
    55    16    52    1
    56    16    53    1
    57    18    54    1
    58    18    55    1
    59    24    56    1
    60    24    57    1
    61    27    58    1
    62    27    59    1
    63    27    60    1
    64    28    61    1
    65    28    62    1
    66    29    63    1
    67    29    64    1
    68    30    65    1
    69    31    66    1
    70    32    67    1
    71    33    68    1
    72    34    69    1
    73    35    70    1
    74    35    71    1
    75    35    72    1
    76    36    73    1
    77    36    74    1
    78    36    75    1
    79    37    76    1
    80    37    77    1
    81    38    78    1
    82    38    79    1
    83    39    80    1
    84    40    81    1
    85    41    82    1
    86    42    83    1
    87    43    84    1
    88    43    85    1
    89    44    86    1
    90    44    87    1
@<TRIPOS>MOLECULE
HTS1204-03362316-01
 87 90 0 0 0
SMALL
USER_CHARGES

@<TRIPOS>ATOM
      1 C1         -0.2381   -3.2382   -0.3854 C.ar    1  UNK1       -0.0199
      2 N1         -0.7723   -5.1039   -1.5004 N.ar    1  UNK1       -0.3494
      3 C2         -2.2174   -1.8497    4.7195 C.2     1  UNK1        0.3028
      4 C3         -0.0194   -3.9631   -1.5447 C.ar    1  UNK1        0.0086
      5 C4          0.5888    0.5391    0.2173 C.2     1  UNK1        0.2342
      6 C5         -1.1884   -3.9960    0.3819 C.ar    1  UNK1        0.0031
      7 C6         -2.5424   -0.5474    1.3818 C.2     1  UNK1        0.2340
      8 C7         -1.5232   -5.1401   -0.3482 C.ar    1  UNK1        0.0491
      9 N2         -2.0213   -0.8687    3.7846 N.am    1  UNK1       -0.2879
     10 N3         -1.0461   -2.3225    5.3108 N.am    1  UNK1       -0.2856
     11 N4         -1.1784   -0.7009    1.3163 N.am    1  UNK1       -0.3022
     12 N5          0.1799    1.4764    1.1427 N.am    1  UNK1       -0.3054
     13 C8         -0.3716   -0.6825    0.0980 C.3     1  UNK1        0.1034
     14 C9         -3.0796   -0.4374    2.8385 C.3     1  UNK1        0.1011
     15 C10         0.8362    2.7785    1.3731 C.3     1  UNK1        0.0680
     16 C11         0.4806   -1.9605   -0.0207 C.3     1  UNK1        0.0013
     17 C12        -0.1618    3.9634    1.2479 C.2     1  UNK1        0.0623
     18 C13         1.5104    2.8494    2.7553 C.3     1  UNK1        0.0133
     19 O1         -3.3282   -2.2967    4.9881 O.2     1  UNK1       -0.2526
     20 O2         -3.2563   -0.4673    0.3868 O.2     1  UNK1       -0.2738
     21 O3          1.6053    0.6543   -0.4635 O.2     1  UNK1       -0.2738
     22 N6          0.9180    1.5034    4.7312 N.ar    1  UNK1       -0.2598
     23 O4         -1.3822    3.6069    1.1710 O.co2   1  UNK1       -0.5479
     24 C14        -3.5268    0.9862    3.1893 C.3     1  UNK1       -0.0236
     25 C15         0.6384    2.6019    3.9755 C.ar    1  UNK1        0.0434
     26 O5          0.3361    5.1212    1.3032 O.co2   1  UNK1       -0.5479
     27 C16        -0.7488   -6.1501   -2.4962 C.3     1  UNK1        0.0119
     28 C17         0.2711   -2.1799    4.6671 C.3     1  UNK1        0.0161
     29 C18        -1.1765   -3.2487    6.4307 C.3     1  UNK1        0.0161
     30 C19        -2.4529   -6.0887    0.1191 C.ar    1  UNK1       -0.0376
     31 C20        -1.7959   -3.8350    1.6412 C.ar    1  UNK1       -0.0523
     32 C21        -4.6251    1.5988    2.2974 C.3     1  UNK1       -0.0446
     33 C22         0.2103    1.3304    5.8726 C.ar    1  UNK1        0.0279
     34 C23        -0.3511    3.5078    4.3547 C.ar    1  UNK1       -0.0403
     35 C24        -4.9844    2.9961    2.8118 C.3     1  UNK1       -0.0626
     36 C25        -5.8855    0.7372    2.2228 C.3     1  UNK1       -0.0626
     37 C26         1.4075   -3.0143    5.2591 C.3     1  UNK1       -0.0371
     38 C27        -1.0944   -4.7261    6.0479 C.3     1  UNK1       -0.0371
     39 C28        -2.7426   -4.7501    2.1107 C.ar    1  UNK1       -0.0611
     40 C29        -3.0654   -5.8664    1.3550 C.ar    1  UNK1       -0.0598
     41 C30        -0.8095    2.1636    6.2900 C.ar    1  UNK1       -0.0436
     42 C31        -1.0949    3.2716    5.5096 C.ar    1  UNK1       -0.0586
     43 C32         1.2849   -4.5237    5.0347 C.3     1  UNK1       -0.0516
     44 C33        -0.1283   -5.0846    4.9226 C.3     1  UNK1       -0.0516
     45 H           0.6376   -3.7593   -2.3803 H       1  UNK1        0.0812
     46 H          -1.3079   -0.1851    4.0105 H       1  UNK1        0.1510
     47 H          -0.6705   -0.5926    2.1832 H       1  UNK1        0.1495
     48 H          -0.8315    1.5702    1.2487 H       1  UNK1        0.1494
     49 H          -1.0103   -0.5356   -0.7794 H       1  UNK1        0.0598
     50 H          -3.9139   -1.1431    2.9172 H       1  UNK1        0.0595
     51 H           1.6014    2.9184    0.5999 H       1  UNK1        0.0564
     52 H           1.0187   -2.1314    0.9220 H       1  UNK1        0.0337
     53 H           1.2606   -1.7994   -0.7779 H       1  UNK1        0.0337
     54 H           2.0014    3.8221    2.8910 H       1  UNK1        0.0350
     55 H           2.3205    2.1071    2.7733 H       1  UNK1        0.0350
     56 H          -2.6522    1.6485    3.1557 H       1  UNK1        0.0290
     57 H          -3.8694    0.9929    4.2332 H       1  UNK1        0.0290
     58 H          -0.0368   -5.8926   -3.2843 H       1  UNK1        0.0456
     59 H          -1.7521   -6.2520   -2.9164 H       1  UNK1        0.0456
     60 H          -0.4375   -7.0790   -2.0106 H       1  UNK1        0.0456
     61 H           0.5483   -1.1282    4.7329 H       1  UNK1        0.0465
     62 H           0.1693   -2.4034    3.6004 H       1  UNK1        0.0465
     63 H          -2.1330   -3.0759    6.9399 H       1  UNK1        0.0465
     64 H          -0.4150   -2.9972    7.1756 H       1  UNK1        0.0465
     65 H          -2.7024   -6.9684   -0.4630 H       1  UNK1        0.0638
     66 H          -1.5375   -2.9941    2.2628 H       1  UNK1        0.0624
     67 H          -4.2319    1.7217    1.2816 H       1  UNK1        0.0296
     68 H           0.4900    0.4633    6.4634 H       1  UNK1        0.0829
     69 H          -0.5548    4.3988    3.7663 H       1  UNK1        0.0635
     70 H          -5.4181    2.9504    3.8166 H       1  UNK1        0.0232
     71 H          -5.7127    3.4777    2.1503 H       1  UNK1        0.0232
     72 H          -4.0974    3.6371    2.8534 H       1  UNK1        0.0232
     73 H          -6.2971    0.5473    3.2194 H       1  UNK1        0.0232
     74 H          -5.6854   -0.2271    1.7469 H       1  UNK1        0.0232
     75 H          -6.6585    1.2348    1.6263 H       1  UNK1        0.0232
     76 H           1.5148   -2.8093    6.3301 H       1  UNK1        0.0280
     77 H           2.3532   -2.6839    4.8102 H       1  UNK1        0.0280
     78 H          -2.0933   -5.0663    5.7456 H       1  UNK1        0.0280
     79 H          -0.8394   -5.3031    6.9455 H       1  UNK1        0.0280
     80 H          -3.2156   -4.5772    3.0751 H       1  UNK1        0.0618
     81 H          -3.7987   -6.5739    1.7315 H       1  UNK1        0.0618
     82 H          -1.3596    1.9586    7.1999 H       1  UNK1        0.0633
     83 H          -1.8834    3.9626    5.7926 H       1  UNK1        0.0619
     84 H           1.8279   -5.0463    5.8311 H       1  UNK1        0.0266
     85 H           1.8093   -4.7741    4.1026 H       1  UNK1        0.0266
     86 H          -0.5565   -4.7583    3.9718 H       1  UNK1        0.0266
     87 H          -0.0673   -6.1780    4.8499 H       1  UNK1        0.0266
@<TRIPOS>BOND
     1     2     4   ar
     2     3     9   am
     3     1     4   ar
     4     5    13    1
     5     1     6   ar
     6     7    11   am
     7     6     8   ar
     8     9    14    1
     9     3    10   am
    10    11    13    1
    11     5    12   am
    12    13    16    1
    13     7    14    1
    14    12    15    1
    15     1    16    1
    16    15    17    1
    17    15    18    1
    18     3    19    2
    19     7    20    2
    20     5    21    2
    21    22    25   ar
    22    17    23   ar
    23    14    24    1
    24    18    25    1
    25    17    26   ar
    26     2    27    1
    27    10    28    1
    28    10    29    1
    29     8    30   ar
    30     6    31   ar
    31    24    32    1
    32    22    33   ar
    33    25    34   ar
    34    32    35    1
    35    32    36    1
    36    28    37    1
    37    29    38    1
    38    31    39   ar
    39    39    40   ar
    40    41    42   ar
    41    34    42   ar
    42    37    43    1
    43    38    44    1
    44     2     8   ar
    45    30    40   ar
    46    33    41   ar
    47    43    44    1
    48     4    45    1
    49     9    46    1
    50    11    47    1
    51    12    48    1
    52    13    49    1
    53    14    50    1
    54    15    51    1
    55    16    52    1
    56    16    53    1
    57    18    54    1
    58    18    55    1
    59    24    56    1
    60    24    57    1
    61    27    58    1
    62    27    59    1
    63    27    60    1
    64    28    61    1
    65    28    62    1
    66    29    63    1
    67    29    64    1
    68    30    65    1
    69    31    66    1
    70    32    67    1
    71    33    68    1
    72    34    69    1
    73    35    70    1
    74    35    71    1
    75    35    72    1
    76    36    73    1
    77    36    74    1
    78    36    75    1
    79    37    76    1
    80    37    77    1
    81    38    78    1
    82    38    79    1
    83    39    80    1
    84    40    81    1
    85    41    82    1
    86    42    83    1
    87    43    84    1
    88    43    85    1
    89    44    86    1
    90    44    87    1
@<TRIPOS>MOLECULE
HTS1204-03362316-01
 87 90 0 0 0
SMALL
USER_CHARGES

@<TRIPOS>ATOM
      1 C1         -0.0932   -2.9856   -0.2287 C.ar    1  UNK1       -0.0199
      2 N1         -0.7832   -5.0756    0.1383 N.ar    1  UNK1       -0.3494
      3 C2         -4.4152    1.7996    3.1138 C.2     1  UNK1        0.3028
      4 C3         -0.0523   -4.0449    0.6590 C.ar    1  UNK1        0.0086
      5 C4          0.7105    0.8373    0.4269 C.2     1  UNK1        0.2342
      6 C5         -0.9137   -3.3993   -1.3267 C.ar    1  UNK1        0.0031
      7 C6         -2.3331   -0.0124    1.2845 C.2     1  UNK1        0.2340
      8 C7         -1.3240   -4.7134   -1.0760 C.ar    1  UNK1        0.0491
      9 N2         -3.3631    0.9574    3.3612 N.am    1  UNK1       -0.2879
     10 N3         -4.4571    2.8993    3.9720 N.am    1  UNK1       -0.2856
     11 N4         -1.0775   -0.5933    1.2598 N.am    1  UNK1       -0.3022
     12 N5          1.9951    0.8215   -0.0914 N.am    1  UNK1       -0.3054
     13 C8         -0.1641   -0.4228    0.1243 C.3     1  UNK1        0.1034
     14 C9         -3.0824   -0.2676    2.6155 C.3     1  UNK1        0.1011
     15 C10         3.0228    1.7378    0.4862 C.3     1  UNK1        0.0680
     16 C11         0.6699   -1.6995   -0.0822 C.3     1  UNK1        0.0013
     17 C12         3.4363    1.2280    1.9089 C.2     1  UNK1        0.0623
     18 C13         4.2933    1.6428   -0.3773 C.3     1  UNK1        0.0133
     19 O1         -5.2678    1.6076    2.2543 O.2     1  UNK1       -0.2526
     20 O2         -2.8100    0.6057    0.3382 O.2     1  UNK1       -0.2738
     21 O3          0.2641    1.8030    1.0515 O.2     1  UNK1       -0.2738
     22 N6          5.3364    3.4464   -1.6498 N.ar    1  UNK1       -0.2598
     23 O4          3.3781   -0.0393    2.0338 O.co2   1  UNK1       -0.5479
     24 C14        -4.2703   -1.2084    2.3539 C.3     1  UNK1       -0.0236
     25 C15         5.1844    2.8607   -0.4308 C.ar    1  UNK1        0.0434
     26 O5          3.7806    2.1003    2.7511 O.co2   1  UNK1       -0.5479
     27 C16        -0.9238   -6.3748    0.7549 C.3     1  UNK1        0.0119
     28 C17        -3.7953    2.9094    5.2827 C.3     1  UNK1        0.0161
     29 C18        -5.3607    3.9923    3.6396 C.3     1  UNK1        0.0161
     30 C19        -2.1242   -5.4333   -1.9786 C.ar    1  UNK1       -0.0376
     31 C20        -1.3251   -2.7843   -2.5276 C.ar    1  UNK1       -0.0523
     32 C21        -5.0095   -1.7047    3.6113 C.3     1  UNK1       -0.0446
     33 C22         6.1947    4.4844   -1.7443 C.ar    1  UNK1        0.0279
     34 C23         5.8977    3.2936    0.6824 C.ar    1  UNK1       -0.0403
     35 C24        -4.0972   -2.4959    4.5504 C.3     1  UNK1       -0.0626
     36 C25        -6.1945   -2.5794    3.1910 C.3     1  UNK1       -0.0626
     37 C26        -4.3784    3.8799    6.3152 C.3     1  UNK1       -0.0371
     38 C27        -6.7334    3.8751    4.3039 C.3     1  UNK1       -0.0371
     39 C28        -2.1265   -3.4913   -3.4313 C.ar    1  UNK1       -0.0611
     40 C29        -2.5173   -4.7985   -3.1595 C.ar    1  UNK1       -0.0598
     41 C30         6.9312    4.9771   -0.6827 C.ar    1  UNK1       -0.0436
     42 C31         6.7749    4.3680    0.5539 C.ar    1  UNK1       -0.0586
     43 C32        -5.8325    3.6171    6.7163 C.3     1  UNK1       -0.0516
     44 C33        -6.7694    3.1066    5.6238 C.3     1  UNK1       -0.0516
     45 H           0.4732   -4.1457    1.6004 H       1  UNK1        0.0812
     46 H          -2.5308    1.4735    3.6110 H       1  UNK1        0.1510
     47 H          -0.6199   -0.7573    2.1475 H       1  UNK1        0.1495
     48 H           2.4035   -0.1033   -0.1206 H       1  UNK1        0.1494
     49 H          -0.7472   -0.2021   -0.7770 H       1  UNK1        0.0598
     50 H          -2.3820   -0.8013    3.2690 H       1  UNK1        0.0595
     51 H           2.6090    2.7511    0.5262 H       1  UNK1        0.0564
     52 H           1.3691   -1.8140    0.7579 H       1  UNK1        0.0337
     53 H           1.2867   -1.5928   -0.9844 H       1  UNK1        0.0337
     54 H           3.9912    1.4297   -1.4132 H       1  UNK1        0.0350
     55 H           4.9127    0.7840   -0.0847 H       1  UNK1        0.0350
     56 H          -3.9013   -2.0808    1.7955 H       1  UNK1        0.0290
     57 H          -4.9883   -0.7267    1.6795 H       1  UNK1        0.0290
     58 H          -0.3857   -6.3908    1.7063 H       1  UNK1        0.0456
     59 H          -0.5005   -7.1246    0.0812 H       1  UNK1        0.0456
     60 H          -1.9859   -6.5646    0.9275 H       1  UNK1        0.0456
     61 H          -2.7471    3.1749    5.1040 H       1  UNK1        0.0465
     62 H          -3.8096    1.8930    5.6946 H       1  UNK1        0.0465
     63 H          -5.4974    4.0390    2.5521 H       1  UNK1        0.0465
     64 H          -4.8747    4.9376    3.9054 H       1  UNK1        0.0465
     65 H          -2.4300   -6.4536   -1.7741 H       1  UNK1        0.0638
     66 H          -1.0276   -1.7644   -2.7529 H       1  UNK1        0.0624
     67 H          -5.4082   -0.8441    4.1615 H       1  UNK1        0.0296
     68 H           6.2804    4.9194   -2.7349 H       1  UNK1        0.0829
     69 H           5.7894    2.8025    1.6447 H       1  UNK1        0.0635
     70 H          -3.5912   -3.3099    4.0199 H       1  UNK1        0.0232
     71 H          -4.6709   -2.9350    5.3736 H       1  UNK1        0.0232
     72 H          -3.3334   -1.8531    4.9983 H       1  UNK1        0.0232
     73 H          -5.8589   -3.4616    2.6346 H       1  UNK1        0.0232
     74 H          -6.8848   -2.0184    2.5522 H       1  UNK1        0.0232
     75 H          -6.7554   -2.9243    4.0659 H       1  UNK1        0.0232
     76 H          -4.2849    4.9119    5.9584 H       1  UNK1        0.0280
     77 H          -3.7625    3.8361    7.2229 H       1  UNK1        0.0280
     78 H          -7.4117    3.3652    3.6078 H       1  UNK1        0.0280
     79 H          -7.1478    4.8812    4.4433 H       1  UNK1        0.0280
     80 H          -2.4447   -3.0096   -4.3520 H       1  UNK1        0.0618
     81 H          -3.1375   -5.3333   -3.8742 H       1  UNK1        0.0618
     82 H           7.6091    5.8107   -0.8151 H       1  UNK1        0.0633
     83 H           7.3294    4.7155    1.4200 H       1  UNK1        0.0619
     84 H          -6.2449    4.5406    7.1423 H       1  UNK1        0.0266
     85 H          -5.8431    2.8827    7.5322 H       1  UNK1        0.0266
     86 H          -6.5543    2.0479    5.4313 H       1  UNK1        0.0266
     87 H          -7.7965    3.1281    6.0102 H       1  UNK1        0.0266
@<TRIPOS>BOND
     1     2     4   ar
     2     3     9   am
     3     1     4   ar
     4     5    13    1
     5     1     6   ar
     6     7    11   am
     7     6     8   ar
     8     9    14    1
     9     3    10   am
    10    11    13    1
    11     5    12   am
    12    13    16    1
    13     7    14    1
    14    12    15    1
    15     1    16    1
    16    15    17    1
    17    15    18    1
    18     3    19    2
    19     7    20    2
    20     5    21    2
    21    22    25   ar
    22    17    23   ar
    23    14    24    1
    24    18    25    1
    25    17    26   ar
    26     2    27    1
    27    10    28    1
    28    10    29    1
    29     8    30   ar
    30     6    31   ar
    31    24    32    1
    32    22    33   ar
    33    25    34   ar
    34    32    35    1
    35    32    36    1
    36    28    37    1
    37    29    38    1
    38    31    39   ar
    39    39    40   ar
    40    41    42   ar
    41    34    42   ar
    42    37    43    1
    43    38    44    1
    44     2     8   ar
    45    30    40   ar
    46    33    41   ar
    47    43    44    1
    48     4    45    1
    49     9    46    1
    50    11    47    1
    51    12    48    1
    52    13    49    1
    53    14    50    1
    54    15    51    1
    55    16    52    1
    56    16    53    1
    57    18    54    1
    58    18    55    1
    59    24    56    1
    60    24    57    1
    61    27    58    1
    62    27    59    1
    63    27    60    1
    64    28    61    1
    65    28    62    1
    66    29    63    1
    67    29    64    1
    68    30    65    1
    69    31    66    1
    70    32    67    1
    71    33    68    1
    72    34    69    1
    73    35    70    1
    74    35    71    1
    75    35    72    1
    76    36    73    1
    77    36    74    1
    78    36    75    1
    79    37    76    1
    80    37    77    1
    81    38    78    1
    82    38    79    1
    83    39    80    1
    84    40    81    1
    85    41    82    1
    86    42    83    1
    87    43    84    1
    88    43    85    1
    89    44    86    1
    90    44    87    1
@<TRIPOS>MOLECULE
HTS1204-03362316-01
 87 90 0 0 0
SMALL
USER_CHARGES

@<TRIPOS>ATOM
      1 C1          1.4447   -1.5980   -1.2174 C.ar    1  UNK1       -0.0199
      2 N1          2.5624   -1.1866   -3.1081 N.ar    1  UNK1       -0.3494
      3 C2         -5.2642   -0.3705    1.7903 C.2     1  UNK1        0.3028
      4 C3          1.6453   -0.6779   -2.2271 C.ar    1  UNK1        0.0086
      5 C4          0.1536    1.1011    0.1704 C.2     1  UNK1        0.2342
      6 C5          2.2915   -2.7200   -1.5188 C.ar    1  UNK1        0.0031
      7 C6         -2.3622   -1.3065    1.3279 C.2     1  UNK1        0.2340
      8 C7          2.9723   -2.4390   -2.7062 C.ar    1  UNK1        0.0491
      9 N2         -4.5463   -1.2342    2.5776 N.am    1  UNK1       -0.2879
     10 N3         -6.6485   -0.4773    1.9223 N.am    1  UNK1       -0.2856
     11 N4         -1.3474   -0.3941    1.1629 N.am    1  UNK1       -0.3022
     12 N5          1.0860    1.2170    1.1892 N.am    1  UNK1       -0.3054
     13 C8         -0.4426   -0.3199    0.0040 C.3     1  UNK1        0.1034
     14 C9         -3.0918   -1.1197    2.6837 C.3     1  UNK1        0.1011
     15 C10         1.6429    2.5349    1.6044 C.3     1  UNK1        0.0680
     16 C11         0.5552   -1.4839   -0.0120 C.3     1  UNK1        0.0013
     17 C12         2.5011    3.2314    0.5002 C.2     1  UNK1        0.0623
     18 C13         0.6070    3.4700    2.2483 C.3     1  UNK1        0.0133
     19 O1         -4.7209    0.4070    1.0150 O.2     1  UNK1       -0.2526
     20 O2         -2.5870   -2.2333    0.5554 O.2     1  UNK1       -0.2738
     21 O3         -0.3946    2.0716   -0.3528 O.2     1  UNK1       -0.2738
     22 N6          0.9263    2.4611    4.4857 N.ar    1  UNK1       -0.2598
     23 O4          2.4237    4.4894    0.4173 O.co2   1  UNK1       -0.5479
     24 C14        -2.5932   -2.2017    3.6675 C.3     1  UNK1       -0.0236
     25 C15         0.0614    2.9958    3.5849 C.ar    1  UNK1        0.0434
     26 O5          3.2403    2.4335   -0.1563 O.co2   1  UNK1       -0.5479
     27 C16         3.0432   -0.4909   -4.2798 C.3     1  UNK1        0.0119
     28 C17        -7.3094   -1.2255    2.9987 C.3     1  UNK1        0.0161
     29 C18        -7.4827    0.2068    0.9347 C.3     1  UNK1        0.0161
     30 C19         3.8903   -3.3382   -3.2746 C.ar    1  UNK1       -0.0376
     31 C20         2.5451   -3.9501   -0.8737 C.ar    1  UNK1       -0.0523
     32 C21        -1.0713   -2.2951    3.8880 C.3     1  UNK1       -0.0446
     33 C22         0.4536    2.1461    5.7101 C.ar    1  UNK1        0.0279
     34 C23        -1.2735    3.2351    3.9123 C.ar    1  UNK1       -0.0403
     35 C24        -0.7566   -3.4888    4.7942 C.3     1  UNK1       -0.0626
     36 C25        -0.4929   -1.0231    4.4999 C.3     1  UNK1       -0.0626
     37 C26        -8.8350   -1.2914    2.9439 C.3     1  UNK1       -0.0371
     38 C27        -8.1658   -0.7567   -0.0427 C.3     1  UNK1       -0.0371
     39 C28         3.4609   -4.8518   -1.4279 C.ar    1  UNK1       -0.0611
     40 C29         4.1225   -4.5478   -2.6134 C.ar    1  UNK1       -0.0598
     41 C30        -0.8573    2.3436    6.1051 C.ar    1  UNK1       -0.0436
     42 C31        -1.7360    2.8998    5.1846 C.ar    1  UNK1       -0.0586
     43 C32        -9.3835   -2.1233    1.7844 C.3     1  UNK1       -0.0516
     44 C33        -8.5444   -2.1314    0.5091 C.3     1  UNK1       -0.0516
     45 H           1.2352    0.3140   -2.3785 H       1  UNK1        0.0812
     46 H          -5.0053   -1.5236    3.4195 H       1  UNK1        0.1510
     47 H          -1.3760    0.4474    1.7304 H       1  UNK1        0.1495
     48 H           1.8085    0.5099    1.1674 H       1  UNK1        0.1494
     49 H          -1.0553   -0.3356   -0.9054 H       1  UNK1        0.0598
     50 H          -2.8888   -0.1200    3.0864 H       1  UNK1        0.0595
     51 H           2.3842    2.2738    2.3724 H       1  UNK1        0.0564
     52 H          -0.0093   -2.4236    0.0558 H       1  UNK1        0.0337
     53 H           1.1874   -1.4658    0.8844 H       1  UNK1        0.0337
     54 H          -0.2272    3.6371    1.5577 H       1  UNK1        0.0350
     55 H           1.0456    4.4567    2.4426 H       1  UNK1        0.0350
     56 H          -2.9481   -3.1793    3.3105 H       1  UNK1        0.0290
     57 H          -3.0852   -2.0442    4.6375 H       1  UNK1        0.0290
     58 H           2.5495    0.4806   -4.3622 H       1  UNK1        0.0456
     59 H           2.8102   -1.0969   -5.1596 H       1  UNK1        0.0456
     60 H           4.1231   -0.3524   -4.1829 H       1  UNK1        0.0456
     61 H          -7.0150   -0.7382    3.9363 H       1  UNK1        0.0465
     62 H          -6.9036   -2.2438    3.0219 H       1  UNK1        0.0465
     63 H          -6.8904    0.9182    0.3484 H       1  UNK1        0.0465
     64 H          -8.2180    0.8208    1.4631 H       1  UNK1        0.0465
     65 H           4.4157   -3.1017   -4.1936 H       1  UNK1        0.0638
     66 H           2.0360   -4.1926    0.0538 H       1  UNK1        0.0624
     67 H          -0.5727   -2.4788    2.9294 H       1  UNK1        0.0296
     68 H           1.1855    1.7140    6.3853 H       1  UNK1        0.0829
     69 H          -1.9416    3.6976    3.1911 H       1  UNK1        0.0635
     70 H          -1.2158   -3.3705    5.7815 H       1  UNK1        0.0232
     71 H           0.3243   -3.5977    4.9329 H       1  UNK1        0.0232
     72 H          -1.1310   -4.4196    4.3548 H       1  UNK1        0.0232
     73 H          -0.9597   -0.8023    5.4652 H       1  UNK1        0.0232
     74 H          -0.6410   -0.1615    3.8459 H       1  UNK1        0.0232
     75 H           0.5856   -1.1268    4.6612 H       1  UNK1        0.0232
     76 H          -9.2649   -0.2841    2.9130 H       1  UNK1        0.0280
     77 H          -9.2023   -1.7280    3.8816 H       1  UNK1        0.0280
     78 H          -7.4908   -0.9234   -0.8925 H       1  UNK1        0.0280
     79 H          -9.0556   -0.2665   -0.4559 H       1  UNK1        0.0280
     80 H           3.6578   -5.7933   -0.9228 H       1  UNK1        0.0618
     81 H           4.8348   -5.2555   -3.0294 H       1  UNK1        0.0618
     82 H          -1.1802    2.0765    7.1032 H       1  UNK1        0.0633
     83 H          -2.7697    3.0893    5.4559 H       1  UNK1        0.0619
     84 H         -10.4013   -1.7845    1.5566 H       1  UNK1        0.0266
     85 H          -9.4817   -3.1631    2.1232 H       1  UNK1        0.0266
     86 H          -7.6306   -2.7145    0.6813 H       1  UNK1        0.0266
     87 H          -9.0949   -2.6805   -0.2652 H       1  UNK1        0.0266
@<TRIPOS>BOND
     1     2     4   ar
     2     3     9   am
     3     1     4   ar
     4     5    13    1
     5     1     6   ar
     6     7    11   am
     7     6     8   ar
     8     9    14    1
     9     3    10   am
    10    11    13    1
    11     5    12   am
    12    13    16    1
    13     7    14    1
    14    12    15    1
    15     1    16    1
    16    15    17    1
    17    15    18    1
    18     3    19    2
    19     7    20    2
    20     5    21    2
    21    22    25   ar
    22    17    23   ar
    23    14    24    1
    24    18    25    1
    25    17    26   ar
    26     2    27    1
    27    10    28    1
    28    10    29    1
    29     8    30   ar
    30     6    31   ar
    31    24    32    1
    32    22    33   ar
    33    25    34   ar
    34    32    35    1
    35    32    36    1
    36    28    37    1
    37    29    38    1
    38    31    39   ar
    39    39    40   ar
    40    41    42   ar
    41    34    42   ar
    42    37    43    1
    43    38    44    1
    44     2     8   ar
    45    30    40   ar
    46    33    41   ar
    47    43    44    1
    48     4    45    1
    49     9    46    1
    50    11    47    1
    51    12    48    1
    52    13    49    1
    53    14    50    1
    54    15    51    1
    55    16    52    1
    56    16    53    1
    57    18    54    1
    58    18    55    1
    59    24    56    1
    60    24    57    1
    61    27    58    1
    62    27    59    1
    63    27    60    1
    64    28    61    1
    65    28    62    1
    66    29    63    1
    67    29    64    1
    68    30    65    1
    69    31    66    1
    70    32    67    1
    71    33    68    1
    72    34    69    1
    73    35    70    1
    74    35    71    1
    75    35    72    1
    76    36    73    1
    77    36    74    1
    78    36    75    1
    79    37    76    1
    80    37    77    1
    81    38    78    1
    82    38    79    1
    83    39    80    1
    84    40    81    1
    85    41    82    1
    86    42    83    1
    87    43    84    1
    88    43    85    1
    89    44    86    1
    90    44    87    1
@<TRIPOS>MOLECULE
HTS1204-03362316-01
 87 90 0 0 0
SMALL
USER_CHARGES

@<TRIPOS>ATOM
      1 C1          1.3935   -2.4066    1.1236 C.ar    1  UNK1       -0.0199
      2 N1          3.3199   -2.4896    2.2497 N.ar    1  UNK1       -0.3494
      3 C2         -3.3954    1.1526    4.9946 C.2     1  UNK1        0.3028
      4 C3          2.7643   -2.2589    1.0226 C.ar    1  UNK1        0.0086
      5 C4          0.8118    0.4426    0.1250 C.2     1  UNK1        0.2342
      6 C5          1.1292   -2.8509    2.4647 C.ar    1  UNK1        0.0031
      7 C6         -1.9200    0.4792    1.6040 C.2     1  UNK1        0.2340
      8 C7          2.3417   -2.8145    3.1621 C.ar    1  UNK1        0.0491
      9 N2         -2.8339    1.3099    3.7535 N.am    1  UNK1       -0.2879
     10 N3         -3.1867    2.2021    5.8808 N.am    1  UNK1       -0.2856
     11 N4         -1.1320   -0.6142    1.3179 N.am    1  UNK1       -0.3022
     12 N5          1.3084    0.7836    1.3596 N.am    1  UNK1       -0.3054
     13 C8         -0.2501   -0.6789    0.1524 C.3     1  UNK1        0.1034
     14 C9         -2.8933    0.2400    2.7776 C.3     1  UNK1        0.1011
     15 C10         2.0816    2.0080    1.6414 C.3     1  UNK1        0.0680
     16 C11         0.4163   -2.0694    0.0280 C.3     1  UNK1        0.0013
     17 C12         1.5807    2.6749    2.9741 C.2     1  UNK1        0.0623
     18 C13         3.5894    1.7358    1.7989 C.3     1  UNK1        0.0133
     19 O1         -4.0986    0.1770    5.2805 O.2     1  UNK1       -0.2526
     20 O2         -1.8575    1.5198    0.9600 O.2     1  UNK1       -0.2738
     21 O3          1.2437    0.8752   -0.9432 O.2     1  UNK1       -0.2738
     22 N6          5.3341    0.3256    0.7995 N.ar    1  UNK1       -0.2598
     23 O4          2.1875    3.7180    3.3489 O.co2   1  UNK1       -0.5479
     24 C14        -4.2947   -0.1422    2.2491 C.3     1  UNK1       -0.0236
     25 C15         4.3414    1.2338    0.5802 C.ar    1  UNK1        0.0434
     26 O5          0.5889    2.0862    3.5218 O.co2   1  UNK1       -0.5479
     27 C16         4.7287   -2.3683    2.5473 C.3     1  UNK1        0.0119
     28 C17        -2.2040    3.2733    5.6372 C.3     1  UNK1        0.0161
     29 C18        -3.9244    2.2025    7.1375 C.3     1  UNK1        0.0161
     30 C19         2.4228   -3.0557    4.5433 C.ar    1  UNK1       -0.0376
     31 C20        -0.0323   -3.2244    3.1768 C.ar    1  UNK1       -0.0523
     32 C21        -5.2409    0.9173    1.6363 C.3     1  UNK1       -0.0446
     33 C22         6.0209   -0.1262   -0.2744 C.ar    1  UNK1        0.0279
     34 C23         4.0878    1.7306   -0.6955 C.ar    1  UNK1       -0.0403
     35 C24        -4.7439    1.5363    0.3327 C.3     1  UNK1       -0.0626
     36 C25        -5.6679    2.0120    2.6112 C.3     1  UNK1       -0.0626
     37 C26        -1.9717    4.2425    6.7985 C.3     1  UNK1       -0.0371
     38 C27        -3.0915    1.7676    8.3421 C.3     1  UNK1       -0.0371
     39 C28         0.0339   -3.4491    4.5568 C.ar    1  UNK1       -0.0611
     40 C29         1.2450   -3.3521    5.2311 C.ar    1  UNK1       -0.0598
     41 C30         5.7858    0.2797   -1.5742 C.ar    1  UNK1       -0.0436
     42 C31         4.8010    1.2321   -1.7843 C.ar    1  UNK1       -0.0586
     43 C32        -1.3129    3.6184    8.0328 C.3     1  UNK1       -0.0516
     44 C33        -1.6130    2.1451    8.2999 C.3     1  UNK1       -0.0516
     45 H           3.3740   -1.9194    0.1943 H       1  UNK1        0.0812
     46 H          -1.9697    1.8488    3.7133 H       1  UNK1        0.1510
     47 H          -1.2027   -1.4248    1.9074 H       1  UNK1        0.1495
     48 H           0.7363    0.5261    2.1632 H       1  UNK1        0.1494
     49 H          -0.8983   -0.5136   -0.7178 H       1  UNK1        0.0598
     50 H          -2.5226   -0.6440    3.3180 H       1  UNK1        0.0595
     51 H           1.8870    2.7285    0.8384 H       1  UNK1        0.0564
     52 H           0.9417   -2.1207   -0.9351 H       1  UNK1        0.0337
     53 H          -0.3594   -2.8452   -0.0003 H       1  UNK1        0.0337
     54 H           3.7321    1.0078    2.6091 H       1  UNK1        0.0350
     55 H           4.1069    2.6502    2.1150 H       1  UNK1        0.0350
     56 H          -4.8481   -0.6250    3.0649 H       1  UNK1        0.0290
     57 H          -4.1617   -0.9325    1.4966 H       1  UNK1        0.0290
     58 H           5.3008   -2.4063    1.6177 H       1  UNK1        0.0456
     59 H           5.0299   -3.2095    3.1776 H       1  UNK1        0.0456
     60 H           4.8932   -1.4216    3.0663 H       1  UNK1        0.0456
     61 H          -2.5596    3.8378    4.7676 H       1  UNK1        0.0465
     62 H          -1.2511    2.8097    5.3653 H       1  UNK1        0.0465
     63 H          -4.7977    1.5418    7.0666 H       1  UNK1        0.0465
     64 H          -4.3492    3.2003    7.2920 H       1  UNK1        0.0465
     65 H           3.3655   -2.9771    5.0747 H       1  UNK1        0.0638
     66 H          -0.9884   -3.3196    2.6741 H       1  UNK1        0.0624
     67 H          -6.1548    0.3639    1.3760 H       1  UNK1        0.0296
     68 H           6.7893   -0.8597   -0.0516 H       1  UNK1        0.0829
     69 H           3.3117    2.4710   -0.8619 H       1  UNK1        0.0635
     70 H          -4.0304    2.3443    0.5125 H       1  UNK1        0.0232
     71 H          -5.5813    1.9792   -0.2182 H       1  UNK1        0.0232
     72 H          -4.2832    0.7864   -0.3183 H       1  UNK1        0.0232
     73 H          -4.8512    2.7044    2.8342 H       1  UNK1        0.0232
     74 H          -6.0330    1.5829    3.5494 H       1  UNK1        0.0232
     75 H          -6.4832    2.6049    2.1816 H       1  UNK1        0.0232
     76 H          -2.9122    4.7240    7.0888 H       1  UNK1        0.0280
     77 H          -1.3299    5.0605    6.4486 H       1  UNK1        0.0280
     78 H          -3.1515    0.6759    8.4325 H       1  UNK1        0.0280
     79 H          -3.5526    2.1717    9.2522 H       1  UNK1        0.0280
     80 H          -0.8735   -3.6796    5.1088 H       1  UNK1        0.0618
     81 H           1.2780   -3.5013    6.3071 H       1  UNK1        0.0618
     82 H           6.3520   -0.1329   -2.3995 H       1  UNK1        0.0633
     83 H           4.5697    1.5821   -2.7851 H       1  UNK1        0.0619
     84 H          -1.5845    4.2134    8.9134 H       1  UNK1        0.0266
     85 H          -0.2244    3.7182    7.9287 H       1  UNK1        0.0266
     86 H          -1.1062    1.5300    7.5453 H       1  UNK1        0.0266
     87 H          -1.1557    1.8647    9.2574 H       1  UNK1        0.0266
@<TRIPOS>BOND
     1     2     4   ar
     2     3     9   am
     3     1     4   ar
     4     5    13    1
     5     1     6   ar
     6     7    11   am
     7     6     8   ar
     8     9    14    1
     9     3    10   am
    10    11    13    1
    11     5    12   am
    12    13    16    1
    13     7    14    1
    14    12    15    1
    15     1    16    1
    16    15    17    1
    17    15    18    1
    18     3    19    2
    19     7    20    2
    20     5    21    2
    21    22    25   ar
    22    17    23   ar
    23    14    24    1
    24    18    25    1
    25    17    26   ar
    26     2    27    1
    27    10    28    1
    28    10    29    1
    29     8    30   ar
    30     6    31   ar
    31    24    32    1
    32    22    33   ar
    33    25    34   ar
    34    32    35    1
    35    32    36    1
    36    28    37    1
    37    29    38    1
    38    31    39   ar
    39    39    40   ar
    40    41    42   ar
    41    34    42   ar
    42    37    43    1
    43    38    44    1
    44     2     8   ar
    45    30    40   ar
    46    33    41   ar
    47    43    44    1
    48     4    45    1
    49     9    46    1
    50    11    47    1
    51    12    48    1
    52    13    49    1
    53    14    50    1
    54    15    51    1
    55    16    52    1
    56    16    53    1
    57    18    54    1
    58    18    55    1
    59    24    56    1
    60    24    57    1
    61    27    58    1
    62    27    59    1
    63    27    60    1
    64    28    61    1
    65    28    62    1
    66    29    63    1
    67    29    64    1
    68    30    65    1
    69    31    66    1
    70    32    67    1
    71    33    68    1
    72    34    69    1
    73    35    70    1
    74    35    71    1
    75    35    72    1
    76    36    73    1
    77    36    74    1
    78    36    75    1
    79    37    76    1
    80    37    77    1
    81    38    78    1
    82    38    79    1
    83    39    80    1
    84    40    81    1
    85    41    82    1
    86    42    83    1
    87    43    84    1
    88    43    85    1
    89    44    86    1
    90    44    87    1
