@<TRIPOS>MOLECULE
3047752
 70 74 0 0 0
SMALL
GASTEIGER

@<TRIPOS>ATOM
      1 O           0.2910   -0.5442    3.5945 O.co2   1  LIG1       -0.5495
      2 O           1.9979   -1.9570    3.0731 O.co2   1  LIG1       -0.5495
      3 O           6.5176    2.0209    1.7237 O.3     1  LIG1       -0.4526
      4 O           7.2092    0.7297   -0.1964 O.3     1  LIG1       -0.4526
      5 O          -2.1594   -4.4757   -2.9313 O.3     1  LIG1       -0.4951
      6 O          -5.8584   -1.7100    0.5327 O.co2   1  LIG1       -0.5495
      7 O          -5.9287   -3.9731    0.2704 O.co2   1  LIG1       -0.5495
      8 N          -1.2497    1.4540   -0.6300 N.ar    1  LIG1       -0.2556
      9 C           1.0064   -0.7190    1.3353 C.3     1  LIG1        0.0217
     10 C          -0.4369   -0.4744    0.8076 C.3     1  LIG1        0.0357
     11 C           1.7645    0.6393    1.3261 C.3     1  LIG1        0.0199
     12 C           0.9214    1.4826    0.4094 C.ar    1  LIG1       -0.0174
     13 C          -0.2973    0.8872    0.1380 C.ar    1  LIG1        0.0534
     14 C          -0.9213   -1.5595   -0.1719 C.ar    1  LIG1       -0.0344
     15 C           3.2268    0.5862    0.8878 C.ar    1  LIG1       -0.0356
     16 C           1.0812   -1.1274    2.8025 C.2     1  LIG1        0.0466
     17 C           1.1875    2.7409   -0.1068 C.ar    1  LIG1       -0.0546
     18 C          -2.1087   -2.3136    0.0242 C.ar    1  LIG1       -0.0395
     19 C          -0.1661   -1.7935   -1.3429 C.ar    1  LIG1       -0.0542
     20 C          -0.9697    2.6600   -1.1732 C.ar    1  LIG1        0.0416
     21 C           4.1783    1.3431    1.5978 C.ar    1  LIG1       -0.0124
     22 C           0.2248    3.3393   -0.9167 C.ar    1  LIG1       -0.0401
     23 C           3.6489   -0.1526   -0.2437 C.ar    1  LIG1       -0.0543
     24 C          -3.0101   -2.0618    1.2297 C.3     1  LIG1       -0.0196
     25 C          -2.4630   -3.2740   -0.9489 C.ar    1  LIG1       -0.0165
     26 C          -2.0300    3.2876   -2.0448 C.3     1  LIG1       -0.0104
     27 C          -4.1469   -3.0565    1.5286 C.3     1  LIG1       -0.0003
     28 C           5.4867    1.3324    1.1628 C.ar    1  LIG1        0.1665
     29 C          -0.5375   -2.7519   -2.2872 C.ar    1  LIG1       -0.0197
     30 C           4.9862   -0.1547   -0.6565 C.ar    1  LIG1       -0.0159
     31 C          -1.6885   -3.5016   -2.0915 C.ar    1  LIG1        0.1204
     32 C           5.8801    0.6016    0.0671 C.ar    1  LIG1        0.1662
     33 C          -2.8571    2.2852   -2.8614 C.3     1  LIG1       -0.0479
     34 C          -4.6465   -2.8754    2.9670 C.3     1  LIG1       -0.0570
     35 C          -2.0224    1.5261   -3.8976 C.3     1  LIG1       -0.0556
     36 C          -5.4227   -2.8857    0.6839 C.2     1  LIG1        0.0449
     37 C           7.6079    1.5991    0.8819 C.3     1  LIG1        0.2332
     38 C          -2.8704    0.5252   -4.6670 C.3     1  LIG1       -0.0653
     39 C          -1.4751   -4.6434   -4.1619 C.3     1  LIG1        0.0788
     40 H           1.5184   -1.4919    0.7519 H       1  LIG1        0.0379
     41 H          -1.1476   -0.3431    1.6266 H       1  LIG1        0.0419
     42 H           1.7222    1.1227    2.3123 H       1  LIG1        0.0404
     43 H           2.1202    3.2473    0.1133 H       1  LIG1        0.0622
     44 H           0.7251   -1.2020   -1.5353 H       1  LIG1        0.0622
     45 H           3.8935    1.9212    2.4700 H       1  LIG1        0.0658
     46 H           0.4055    4.3204   -1.3399 H       1  LIG1        0.0636
     47 H           2.9289   -0.7389   -0.8090 H       1  LIG1        0.0622
     48 H          -3.4191   -1.0486    1.1302 H       1  LIG1        0.0319
     49 H          -2.3537   -2.0683    2.1099 H       1  LIG1        0.0319
     50 H          -3.3740   -3.8591   -0.8377 H       1  LIG1        0.0657
     51 H          -1.5643    4.0022   -2.7347 H       1  LIG1        0.0328
     52 H          -2.7016    3.8601   -1.3938 H       1  LIG1        0.0328
     53 H          -3.7767   -4.0856    1.4341 H       1  LIG1        0.0361
     54 H           0.0923   -2.8774   -3.1581 H       1  LIG1        0.0654
     55 H           5.3022   -0.7344   -1.5149 H       1  LIG1        0.0655
     56 H          -3.6506    2.8366   -3.3804 H       1  LIG1        0.0269
     57 H          -3.3577    1.5738   -2.1935 H       1  LIG1        0.0269
     58 H          -4.9761   -1.8474    3.1535 H       1  LIG1        0.0236
     59 H          -3.8502   -3.1062    3.6819 H       1  LIG1        0.0236
     60 H          -5.4889   -3.5413    3.1840 H       1  LIG1        0.0236
     61 H          -1.2012    0.9861   -3.4134 H       1  LIG1        0.0263
     62 H          -1.5715    2.2356   -4.6015 H       1  LIG1        0.0263
     63 H           8.3471    1.0763    1.5003 H       1  LIG1        0.1166
     64 H           8.0811    2.4900    0.4526 H       1  LIG1        0.1166
     65 H          -3.3074   -0.2172   -3.9917 H       1  LIG1        0.0230
     66 H          -2.2568   -0.0049   -5.4018 H       1  LIG1        0.0230
     67 H          -3.6834    1.0275   -5.2004 H       1  LIG1        0.0230
     68 H          -1.9953   -5.4198   -4.7312 H       1  LIG1        0.0660
     69 H          -0.4478   -4.9859   -4.0002 H       1  LIG1        0.0660
     70 H          -1.4969   -3.7249   -4.7575 H       1  LIG1        0.0660
@<TRIPOS>BOND
     1     1    16   ar
     2     2    16   ar
     3     3    28    1
     4     3    37    1
     5     4    32    1
     6     4    37    1
     7     5    31    1
     8     5    39    1
     9     6    36   ar
    10     7    36   ar
    11     8    13   ar
    12     8    20   ar
    13     9    10    1
    14     9    11    1
    15     9    16    1
    16    10    13    1
    17    10    14    1
    18    11    12    1
    19    11    15    1
    20    12    13   ar
    21    12    17   ar
    22    14    18   ar
    23    14    19   ar
    24    15    21   ar
    25    15    23   ar
    26    17    22   ar
    27    18    24    1
    28    18    25   ar
    29    19    29   ar
    30    20    22   ar
    31    20    26    1
    32    21    28   ar
    33    23    30   ar
    34    24    27    1
    35    25    31   ar
    36    26    33    1
    37    27    34    1
    38    27    36    1
    39    28    32   ar
    40    29    31   ar
    41    30    32   ar
    42    33    35    1
    43    35    38    1
    44     9    40    1
    45    10    41    1
    46    11    42    1
    47    17    43    1
    48    19    44    1
    49    21    45    1
    50    22    46    1
    51    23    47    1
    52    24    48    1
    53    24    49    1
    54    25    50    1
    55    26    51    1
    56    26    52    1
    57    27    53    1
    58    29    54    1
    59    30    55    1
    60    33    56    1
    61    33    57    1
    62    34    58    1
    63    34    59    1
    64    34    60    1
    65    35    61    1
    66    35    62    1
    67    37    63    1
    68    37    64    1
    69    38    65    1
    70    38    66    1
    71    38    67    1
    72    39    68    1
    73    39    69    1
    74    39    70    1
@<TRIPOS>MOLECULE
3047752
 70 74 0 0 0
SMALL
GASTEIGER

@<TRIPOS>ATOM
      1 O           1.9790   -2.4680    2.5870 O.co2   1  LIG1       -0.5495
      2 O           0.7482   -0.7830    3.5033 O.co2   1  LIG1       -0.5495
      3 O           6.5424    1.9667    1.8014 O.3     1  LIG1       -0.4526
      4 O           7.2731    0.8405   -0.2050 O.3     1  LIG1       -0.4526
      5 O          -2.5154   -4.2822   -3.0456 O.3     1  LIG1       -0.4951
      6 O          -5.6098   -1.5156    2.3788 O.co2   1  LIG1       -0.5495
      7 O          -5.3323   -3.3469    3.6972 O.co2   1  LIG1       -0.5495
      8 N          -1.2645    1.3771   -0.6224 N.ar    1  LIG1       -0.2556
      9 C           1.1060   -0.8193    1.1592 C.3     1  LIG1        0.0217
     10 C          -0.3782   -0.5697    0.7685 C.3     1  LIG1        0.0357
     11 C           1.8136    0.5608    1.2344 C.3     1  LIG1        0.0199
     12 C           0.9363    1.4172    0.3630 C.ar    1  LIG1       -0.0174
     13 C          -0.2840    0.8095    0.1132 C.ar    1  LIG1        0.0534
     14 C          -0.9482   -1.6231   -0.1964 C.ar    1  LIG1       -0.0344
     15 C           3.2782    0.5742    0.8042 C.ar    1  LIG1       -0.0356
     16 C           1.2655   -1.4236    2.5474 C.2     1  LIG1        0.0466
     17 C           1.1712    2.6925   -0.1247 C.ar    1  LIG1       -0.0546
     18 C          -2.1366   -2.3579    0.0538 C.ar    1  LIG1       -0.0395
     19 C          -0.2803   -1.8217   -1.4291 C.ar    1  LIG1       -0.0542
     20 C          -1.0226    2.6153   -1.1114 C.ar    1  LIG1        0.0416
     21 C           4.2113    1.2811    1.5866 C.ar    1  LIG1       -0.0124
     22 C           0.1723    3.3029   -0.8783 C.ar    1  LIG1       -0.0401
     23 C           3.7220   -0.0641   -0.3790 C.ar    1  LIG1       -0.0543
     24 C          -2.9558   -2.1552    1.3363 C.3     1  LIG1       -0.0196
     25 C          -2.5964   -3.2327   -0.9581 C.ar    1  LIG1       -0.0165
     26 C          -2.1262    3.2490   -1.9170 C.3     1  LIG1       -0.0104
     27 C          -4.0663   -3.1823    1.6678 C.3     1  LIG1       -0.0003
     28 C           5.5255    1.3182    1.1705 C.ar    1  LIG1        0.1665
     29 C          -0.7545   -2.7014   -2.4016 C.ar    1  LIG1       -0.0197
     30 C           5.0647   -0.0207   -0.7705 C.ar    1  LIG1       -0.0159
     31 C          -1.9257   -3.4052   -2.1734 C.ar    1  LIG1        0.1204
     32 C           5.9411    0.6812    0.0254 C.ar    1  LIG1        0.1662
     33 C          -3.0603    4.1298   -1.0824 C.3     1  LIG1       -0.0479
     34 C          -3.4720   -4.5209    2.1091 C.3     1  LIG1       -0.0570
     35 C          -3.9263    3.3288   -0.1064 C.3     1  LIG1       -0.0556
     36 C          -5.0699   -2.6155    2.6987 C.2     1  LIG1        0.0449
     37 C           7.6486    1.6204    0.9477 C.3     1  LIG1        0.2332
     38 C          -4.9277    4.2216    0.6094 C.3     1  LIG1       -0.0653
     39 C          -2.0085   -4.2858   -4.3716 C.3     1  LIG1        0.0788
     40 H           1.5945   -1.4898    0.4441 H       1  LIG1        0.0379
     41 H          -1.0100   -0.4577    1.6538 H       1  LIG1        0.0419
     42 H           1.7499    0.9904    2.2431 H       1  LIG1        0.0404
     43 H           2.1044    3.2045    0.0813 H       1  LIG1        0.0622
     44 H           0.6202   -1.2536   -1.6495 H       1  LIG1        0.0622
     45 H           3.9087    1.7808    2.5013 H       1  LIG1        0.0658
     46 H           0.3222    4.3012   -1.2728 H       1  LIG1        0.0636
     47 H           3.0146   -0.6091   -0.9995 H       1  LIG1        0.0622
     48 H          -3.3887   -1.1496    1.2653 H       1  LIG1        0.0319
     49 H          -2.2617   -2.1452    2.1866 H       1  LIG1        0.0319
     50 H          -3.5137   -3.7963   -0.8216 H       1  LIG1        0.0657
     51 H          -2.7035    2.4636   -2.4208 H       1  LIG1        0.0328
     52 H          -1.6786    3.8534   -2.7162 H       1  LIG1        0.0328
     53 H          -4.6934   -3.3590    0.7861 H       1  LIG1        0.0361
     54 H          -0.1889   -2.7986   -3.3190 H       1  LIG1        0.0654
     55 H           5.3997   -0.5277   -1.6666 H       1  LIG1        0.0655
     56 H          -3.7169    4.6765   -1.7709 H       1  LIG1        0.0269
     57 H          -2.4816    4.8817   -0.5315 H       1  LIG1        0.0269
     58 H          -2.8910   -4.4127    3.0316 H       1  LIG1        0.0236
     59 H          -2.8124   -4.9439    1.3457 H       1  LIG1        0.0236
     60 H          -4.2615   -5.2569    2.2974 H       1  LIG1        0.0236
     61 H          -3.2981    2.8351    0.6429 H       1  LIG1        0.0263
     62 H          -4.4685    2.5439   -0.6465 H       1  LIG1        0.0263
     63 H           8.3807    1.0523    1.5336 H       1  LIG1        0.1166
     64 H           8.1234    2.5453    0.6004 H       1  LIG1        0.1166
     65 H          -4.4176    5.0024    1.1824 H       1  LIG1        0.0230
     66 H          -5.5330    3.6303    1.3037 H       1  LIG1        0.0230
     67 H          -5.6038    4.7036   -0.1040 H       1  LIG1        0.0230
     68 H          -2.6419   -4.9482   -4.9697 H       1  LIG1        0.0660
     69 H          -0.9896   -4.6851   -4.4028 H       1  LIG1        0.0660
     70 H          -2.0566   -3.2879   -4.8210 H       1  LIG1        0.0660
@<TRIPOS>BOND
     1     1    16   ar
     2     2    16   ar
     3     3    28    1
     4     3    37    1
     5     4    32    1
     6     4    37    1
     7     5    31    1
     8     5    39    1
     9     6    36   ar
    10     7    36   ar
    11     8    13   ar
    12     8    20   ar
    13     9    10    1
    14     9    11    1
    15     9    16    1
    16    10    13    1
    17    10    14    1
    18    11    12    1
    19    11    15    1
    20    12    13   ar
    21    12    17   ar
    22    14    18   ar
    23    14    19   ar
    24    15    21   ar
    25    15    23   ar
    26    17    22   ar
    27    18    24    1
    28    18    25   ar
    29    19    29   ar
    30    20    22   ar
    31    20    26    1
    32    21    28   ar
    33    23    30   ar
    34    24    27    1
    35    25    31   ar
    36    26    33    1
    37    27    34    1
    38    27    36    1
    39    28    32   ar
    40    29    31   ar
    41    30    32   ar
    42    33    35    1
    43    35    38    1
    44     9    40    1
    45    10    41    1
    46    11    42    1
    47    17    43    1
    48    19    44    1
    49    21    45    1
    50    22    46    1
    51    23    47    1
    52    24    48    1
    53    24    49    1
    54    25    50    1
    55    26    51    1
    56    26    52    1
    57    27    53    1
    58    29    54    1
    59    30    55    1
    60    33    56    1
    61    33    57    1
    62    34    58    1
    63    34    59    1
    64    34    60    1
    65    35    61    1
    66    35    62    1
    67    37    63    1
    68    37    64    1
    69    38    65    1
    70    38    66    1
    71    38    67    1
    72    39    68    1
    73    39    69    1
    74    39    70    1
@<TRIPOS>MOLECULE
3047752
 70 74 0 0 0
SMALL
GASTEIGER

@<TRIPOS>ATOM
      1 O           0.8060   -0.6461    3.6016 O.co2   1  LIG1       -0.5495
      2 O           2.1089   -2.2914    2.7206 O.co2   1  LIG1       -0.5495
      3 O           5.5789    0.8784   -1.9991 O.3     1  LIG1       -0.4526
      4 O           7.2566    0.5100   -0.3022 O.3     1  LIG1       -0.4526
      5 O          -2.4617   -4.2731   -2.9367 O.3     1  LIG1       -0.4951
      6 O          -6.1808   -1.4976    1.2677 O.co2   1  LIG1       -0.5495
      7 O          -5.4225   -1.4185    3.4108 O.co2   1  LIG1       -0.5495
      8 N          -1.2215    1.4109   -0.5688 N.ar    1  LIG1       -0.2556
      9 C           1.2024   -0.6867    1.2593 C.3     1  LIG1        0.0217
     10 C          -0.2816   -0.5057    0.8247 C.3     1  LIG1        0.0357
     11 C           1.8507    0.7189    1.3439 C.3     1  LIG1        0.0199
     12 C           0.9327    1.5544    0.4974 C.ar    1  LIG1       -0.0174
     13 C          -0.2354    0.8801    0.1863 C.ar    1  LIG1        0.0534
     14 C          -0.8620   -1.5540   -0.1373 C.ar    1  LIG1       -0.0344
     15 C           3.3114    0.6866    0.8966 C.ar    1  LIG1       -0.0356
     16 C           1.3538   -1.2763    2.6572 C.2     1  LIG1        0.0466
     17 C           1.0970    2.8596    0.0634 C.ar    1  LIG1       -0.0546
     18 C          -2.2371   -1.9012   -0.1533 C.ar    1  LIG1       -0.0395
     19 C          -0.0353   -2.1357   -1.1231 C.ar    1  LIG1       -0.0542
     20 C          -1.0510    2.6747   -1.0162 C.ar    1  LIG1        0.0416
     21 C           3.6969    0.8167   -0.4501 C.ar    1  LIG1       -0.0124
     22 C           0.0944    3.4229   -0.7220 C.ar    1  LIG1       -0.0401
     23 C           4.3076    0.4502    1.8758 C.ar    1  LIG1       -0.0543
     24 C          -3.3003   -1.2833    0.7525 C.3     1  LIG1       -0.0196
     25 C          -2.7035   -2.8275   -1.1181 C.ar    1  LIG1       -0.0165
     26 C          -2.1087    3.2537   -1.9277 C.3     1  LIG1       -0.0104
     27 C          -3.9840   -2.2869    1.6994 C.3     1  LIG1       -0.0003
     28 C           5.0406    0.7535   -0.7548 C.ar    1  LIG1        0.1665
     29 C          -0.5181   -3.0553   -2.0614 C.ar    1  LIG1       -0.0197
     30 C           5.6622    0.3806    1.5363 C.ar    1  LIG1       -0.0159
     31 C          -1.8599   -3.4052   -2.0655 C.ar    1  LIG1        0.1204
     32 C           5.9967    0.5443    0.2115 C.ar    1  LIG1        0.1662
     33 C          -3.5504    2.8325   -1.6159 C.3     1  LIG1       -0.0479
     34 C          -3.0531   -2.7175    2.8274 C.3     1  LIG1       -0.0570
     35 C          -3.9321    1.4733   -2.2094 C.3     1  LIG1       -0.0556
     36 C          -5.3093   -1.6576    2.1755 C.2     1  LIG1        0.0449
     37 C           6.9765    0.6985   -1.7030 C.3     1  LIG1        0.2332
     38 C          -5.3723    1.1130   -1.8771 C.3     1  LIG1       -0.0653
     39 C          -1.6665   -4.7325   -4.0190 C.3     1  LIG1        0.0788
     40 H           1.7699   -1.3180    0.5695 H       1  LIG1        0.0379
     41 H          -0.9031   -0.4509    1.7232 H       1  LIG1        0.0419
     42 H           1.8133    1.1569    2.3504 H       1  LIG1        0.0404
     43 H           1.9883    3.4216    0.3193 H       1  LIG1        0.0622
     44 H           1.0131   -1.8630   -1.1972 H       1  LIG1        0.0622
     45 H           2.9655    0.9529   -1.2394 H       1  LIG1        0.0658
     46 H           0.2063    4.4337   -1.0973 H       1  LIG1        0.0636
     47 H           4.0081    0.2848    2.9122 H       1  LIG1        0.0622
     48 H          -4.0401   -0.8253    0.0830 H       1  LIG1        0.0319
     49 H          -2.9085   -0.4400    1.3283 H       1  LIG1        0.0319
     50 H          -3.7635   -3.0781   -1.1375 H       1  LIG1        0.0657
     51 H          -1.8513    3.0069   -2.9647 H       1  LIG1        0.0328
     52 H          -2.0673    4.3475   -1.8430 H       1  LIG1        0.0328
     53 H          -4.2749   -3.1933    1.1526 H       1  LIG1        0.0361
     54 H           0.1878   -3.4644   -2.7733 H       1  LIG1        0.0654
     55 H           6.4131    0.1832    2.2911 H       1  LIG1        0.0655
     56 H          -4.2223    3.5859   -2.0473 H       1  LIG1        0.0269
     57 H          -3.7232    2.8382   -0.5327 H       1  LIG1        0.0269
     58 H          -2.6753   -1.8565    3.3890 H       1  LIG1        0.0236
     59 H          -2.1925   -3.2699    2.4354 H       1  LIG1        0.0236
     60 H          -3.5725   -3.3752    3.5328 H       1  LIG1        0.0236
     61 H          -3.2778    0.6831   -1.8322 H       1  LIG1        0.0263
     62 H          -3.8096    1.4956   -3.2985 H       1  LIG1        0.0263
     63 H           7.5228    1.5829   -2.0507 H       1  LIG1        0.1166
     64 H           7.3421   -0.1754   -2.2548 H       1  LIG1        0.1166
     65 H          -5.5318    1.0914   -0.7942 H       1  LIG1        0.0230
     66 H          -5.6174    0.1236   -2.2758 H       1  LIG1        0.0230
     67 H          -6.0679    1.8375   -2.3119 H       1  LIG1        0.0230
     68 H          -2.2988   -5.3575   -4.6571 H       1  LIG1        0.0660
     69 H          -0.8364   -5.3531   -3.6661 H       1  LIG1        0.0660
     70 H          -1.3049   -3.8975   -4.6290 H       1  LIG1        0.0660
@<TRIPOS>BOND
     1     1    16   ar
     2     2    16   ar
     3     3    28    1
     4     3    37    1
     5     4    32    1
     6     4    37    1
     7     5    31    1
     8     5    39    1
     9     6    36   ar
    10     7    36   ar
    11     8    13   ar
    12     8    20   ar
    13     9    10    1
    14     9    11    1
    15     9    16    1
    16    10    13    1
    17    10    14    1
    18    11    12    1
    19    11    15    1
    20    12    13   ar
    21    12    17   ar
    22    14    18   ar
    23    14    19   ar
    24    15    21   ar
    25    15    23   ar
    26    17    22   ar
    27    18    24    1
    28    18    25   ar
    29    19    29   ar
    30    20    22   ar
    31    20    26    1
    32    21    28   ar
    33    23    30   ar
    34    24    27    1
    35    25    31   ar
    36    26    33    1
    37    27    34    1
    38    27    36    1
    39    28    32   ar
    40    29    31   ar
    41    30    32   ar
    42    33    35    1
    43    35    38    1
    44     9    40    1
    45    10    41    1
    46    11    42    1
    47    17    43    1
    48    19    44    1
    49    21    45    1
    50    22    46    1
    51    23    47    1
    52    24    48    1
    53    24    49    1
    54    25    50    1
    55    26    51    1
    56    26    52    1
    57    27    53    1
    58    29    54    1
    59    30    55    1
    60    33    56    1
    61    33    57    1
    62    34    58    1
    63    34    59    1
    64    34    60    1
    65    35    61    1
    66    35    62    1
    67    37    63    1
    68    37    64    1
    69    38    65    1
    70    38    66    1
    71    38    67    1
    72    39    68    1
    73    39    69    1
    74    39    70    1
@<TRIPOS>MOLECULE
3047752
 70 74 0 0 0
SMALL
GASTEIGER

@<TRIPOS>ATOM
      1 O           0.8063   -0.7444    3.4871 O.co2   1  LIG1       -0.5495
      2 O           1.9219   -2.4706    2.5080 O.co2   1  LIG1       -0.5495
      3 O           6.6053   -0.4236    2.0967 O.3     1  LIG1       -0.4526
      4 O           7.2963    0.1924   -0.1304 O.3     1  LIG1       -0.4526
      5 O          -2.3150   -4.4744   -2.9218 O.3     1  LIG1       -0.4951
      6 O          -5.6178   -0.2823    1.9160 O.co2   1  LIG1       -0.5495
      7 O          -6.2427   -2.4041    2.4513 O.co2   1  LIG1       -0.5495
      8 N          -1.2151    1.4500   -0.6407 N.ar    1  LIG1       -0.2556
      9 C           1.1849   -0.7023    1.1427 C.3     1  LIG1        0.0217
     10 C          -0.2951   -0.5018    0.7090 C.3     1  LIG1        0.0357
     11 C           1.8414    0.6961    1.2825 C.3     1  LIG1        0.0199
     12 C           0.9253    1.5631    0.4631 C.ar    1  LIG1       -0.0174
     13 C          -0.2321    0.8929    0.0983 C.ar    1  LIG1        0.0534
     14 C          -0.8975   -1.5411   -0.2468 C.ar    1  LIG1       -0.0344
     15 C           3.3070    0.6489    0.8404 C.ar    1  LIG1       -0.0356
     16 C           1.2824   -1.3784    2.5053 C.2     1  LIG1        0.0466
     17 C           1.0718    2.8965    0.1136 C.ar    1  LIG1       -0.0546
     18 C          -2.2847   -1.8403   -0.2669 C.ar    1  LIG1       -0.0395
     19 C          -0.0802   -2.1926   -1.1956 C.ar    1  LIG1       -0.0542
     20 C          -1.0456    2.7373   -1.0204 C.ar    1  LIG1        0.0416
     21 C           4.2613    0.1657    1.7579 C.ar    1  LIG1       -0.0124
     22 C           0.0717    3.4921   -0.6517 C.ar    1  LIG1       -0.0401
     23 C           3.7308    0.9883   -0.4683 C.ar    1  LIG1       -0.0543
     24 C          -3.3375   -1.1387    0.5915 C.3     1  LIG1       -0.0196
     25 C          -2.7720   -2.8131   -1.1748 C.ar    1  LIG1       -0.0165
     26 C          -2.1414    3.3412   -1.8627 C.3     1  LIG1       -0.0104
     27 C          -4.0720   -2.0797    1.5617 C.3     1  LIG1       -0.0003
     28 C           5.5723    0.0483    1.3469 C.ar    1  LIG1        0.1665
     29 C          -0.5831   -3.1588   -2.0722 C.ar    1  LIG1       -0.0197
     30 C           5.0728    0.8811   -0.8511 C.ar    1  LIG1       -0.0159
     31 C          -1.9267   -3.4972   -2.0440 C.ar    1  LIG1        0.1204
     32 C           5.9668    0.3994    0.0778 C.ar    1  LIG1        0.1662
     33 C          -2.2552    2.6374   -3.2193 C.3     1  LIG1       -0.0479
     34 C          -3.2346   -2.3807    2.8009 C.3     1  LIG1       -0.0570
     35 C          -3.3556    3.2156   -4.1115 C.3     1  LIG1       -0.0556
     36 C          -5.4293   -1.5251    2.0319 C.2     1  LIG1        0.0449
     37 C           7.6615   -0.4259    1.1211 C.3     1  LIG1        0.2332
     38 C          -3.0409    4.6105   -4.6297 C.3     1  LIG1       -0.0653
     39 C          -3.4899   -5.1828   -2.5390 C.3     1  LIG1        0.0788
     40 H           1.7562   -1.3015    0.4282 H       1  LIG1        0.0379
     41 H          -0.9143   -0.4486    1.6106 H       1  LIG1        0.0419
     42 H           1.8118    1.0939    2.3053 H       1  LIG1        0.0404
     43 H           1.9440    3.4592    0.4275 H       1  LIG1        0.0622
     44 H           0.9765   -1.9593   -1.2760 H       1  LIG1        0.0622
     45 H           3.9649   -0.1550    2.7543 H       1  LIG1        0.0658
     46 H           0.1630    4.5300   -0.9497 H       1  LIG1        0.0636
     47 H           3.0072    1.3181   -1.2107 H       1  LIG1        0.0622
     48 H          -4.0565   -0.6929   -0.1108 H       1  LIG1        0.0319
     49 H          -2.9213   -0.2859    1.1349 H       1  LIG1        0.0319
     50 H          -3.8415   -3.0033   -1.1838 H       1  LIG1        0.0657
     51 H          -1.9509    4.4108   -2.0038 H       1  LIG1        0.0328
     52 H          -3.0874    3.2579   -1.3142 H       1  LIG1        0.0328
     53 H          -4.2949   -3.0326    1.0655 H       1  LIG1        0.0361
     54 H           0.0886   -3.6538   -2.7658 H       1  LIG1        0.0654
     55 H           5.3897    1.1411   -1.8532 H       1  LIG1        0.0655
     56 H          -2.4737    1.5737   -3.0584 H       1  LIG1        0.0269
     57 H          -1.2935    2.6777   -3.7465 H       1  LIG1        0.0269
     58 H          -2.9823   -1.4643    3.3452 H       1  LIG1        0.0236
     59 H          -2.2999   -2.8819    2.5276 H       1  LIG1        0.0236
     60 H          -3.7708   -3.0391    3.4932 H       1  LIG1        0.0236
     61 H          -4.3093    3.2299   -3.5714 H       1  LIG1        0.0263
     62 H          -3.4888    2.5500   -4.9728 H       1  LIG1        0.0263
     63 H           7.9601   -1.4631    0.9249 H       1  LIG1        0.1166
     64 H           8.5219    0.1105    1.5361 H       1  LIG1        0.1166
     65 H          -3.0022    5.3426   -3.8182 H       1  LIG1        0.0230
     66 H          -3.8164    4.9338   -5.3316 H       1  LIG1        0.0230
     67 H          -2.0814    4.6262   -5.1564 H       1  LIG1        0.0230
     68 H          -3.5566   -6.0775   -3.1658 H       1  LIG1        0.0660
     69 H          -4.3852   -4.5813   -2.7243 H       1  LIG1        0.0660
     70 H          -3.4438   -5.5136   -1.4951 H       1  LIG1        0.0660
@<TRIPOS>BOND
     1     1    16   ar
     2     2    16   ar
     3     3    28    1
     4     3    37    1
     5     4    32    1
     6     4    37    1
     7     5    31    1
     8     5    39    1
     9     6    36   ar
    10     7    36   ar
    11     8    13   ar
    12     8    20   ar
    13     9    10    1
    14     9    11    1
    15     9    16    1
    16    10    13    1
    17    10    14    1
    18    11    12    1
    19    11    15    1
    20    12    13   ar
    21    12    17   ar
    22    14    18   ar
    23    14    19   ar
    24    15    21   ar
    25    15    23   ar
    26    17    22   ar
    27    18    24    1
    28    18    25   ar
    29    19    29   ar
    30    20    22   ar
    31    20    26    1
    32    21    28   ar
    33    23    30   ar
    34    24    27    1
    35    25    31   ar
    36    26    33    1
    37    27    34    1
    38    27    36    1
    39    28    32   ar
    40    29    31   ar
    41    30    32   ar
    42    33    35    1
    43    35    38    1
    44     9    40    1
    45    10    41    1
    46    11    42    1
    47    17    43    1
    48    19    44    1
    49    21    45    1
    50    22    46    1
    51    23    47    1
    52    24    48    1
    53    24    49    1
    54    25    50    1
    55    26    51    1
    56    26    52    1
    57    27    53    1
    58    29    54    1
    59    30    55    1
    60    33    56    1
    61    33    57    1
    62    34    58    1
    63    34    59    1
    64    34    60    1
    65    35    61    1
    66    35    62    1
    67    37    63    1
    68    37    64    1
    69    38    65    1
    70    38    66    1
    71    38    67    1
    72    39    68    1
    73    39    69    1
    74    39    70    1
@<TRIPOS>MOLECULE
3047752
 70 74 0 0 0
SMALL
GASTEIGER

@<TRIPOS>ATOM
      1 O           1.5649   -2.6018    2.3972 O.co2   1  LIG1       -0.5495
      2 O           0.9287   -0.6901    3.4577 O.co2   1  LIG1       -0.5495
      3 O           6.3011   -1.6197    0.9837 O.3     1  LIG1       -0.4526
      4 O           7.3805    0.1947   -0.1815 O.3     1  LIG1       -0.4526
      5 O          -2.1489   -4.6411   -2.7669 O.3     1  LIG1       -0.4951
      6 O          -5.3265    0.2396    2.7590 O.co2   1  LIG1       -0.5495
      7 O          -5.2514   -2.0269    2.9853 O.co2   1  LIG1       -0.5495
      8 N          -1.2106    1.4333   -0.7313 N.ar    1  LIG1       -0.2556
      9 C           1.1558   -0.6864    1.0943 C.3     1  LIG1        0.0217
     10 C          -0.3202   -0.4573    0.6949 C.3     1  LIG1        0.0357
     11 C           1.8715    0.6980    1.2023 C.3     1  LIG1        0.0199
     12 C           0.9370    1.5715    0.3882 C.ar    1  LIG1       -0.0174
     13 C          -0.2171    0.8966    0.0131 C.ar    1  LIG1        0.0534
     14 C          -0.9055   -1.5572   -0.1902 C.ar    1  LIG1       -0.0344
     15 C           3.3543    0.6153    0.7614 C.ar    1  LIG1       -0.0356
     16 C           1.1831   -1.3960    2.4438 C.2     1  LIG1        0.0466
     17 C           0.9983    2.9303    0.1137 C.ar    1  LIG1       -0.0546
     18 C          -2.0431   -2.3157    0.1679 C.ar    1  LIG1       -0.0395
     19 C          -0.2775   -1.8435   -1.4226 C.ar    1  LIG1       -0.0542
     20 C          -1.0845    2.7314   -1.0758 C.ar    1  LIG1        0.0416
     21 C           4.1251   -0.5174    1.1097 C.ar    1  LIG1       -0.0124
     22 C          -0.0123    3.5153   -0.6493 C.ar    1  LIG1       -0.0401
     23 C           4.0272    1.6675    0.0904 C.ar    1  LIG1       -0.0543
     24 C          -2.8880   -2.0701    1.4158 C.3     1  LIG1       -0.0196
     25 C          -2.4686   -3.3618   -0.6873 C.ar    1  LIG1       -0.0165
     26 C          -2.1963    3.3218   -1.9000 C.3     1  LIG1       -0.0104
     27 C          -3.9721   -0.9936    1.2486 C.3     1  LIG1       -0.0003
     28 C           5.4550   -0.5811    0.7445 C.ar    1  LIG1        0.1665
     29 C          -0.7264   -2.8680   -2.2576 C.ar    1  LIG1       -0.0197
     30 C           5.3870    1.5913   -0.2519 C.ar    1  LIG1       -0.0159
     31 C          -1.8112   -3.6493   -1.8836 C.ar    1  LIG1        0.1204
     32 C           6.0713    0.4490    0.0805 C.ar    1  LIG1        0.1662
     33 C          -3.1967    4.1393   -1.0794 C.3     1  LIG1       -0.0479
     34 C          -4.9327   -1.2547    0.0856 C.3     1  LIG1       -0.0570
     35 C          -4.0070    3.2859   -0.1000 C.3     1  LIG1       -0.0556
     36 C          -4.9175   -0.9227    2.4642 C.2     1  LIG1        0.0449
     37 C           7.5031   -1.1366    0.3607 C.3     1  LIG1        0.2332
     38 C          -5.0403    4.1231    0.6374 C.3     1  LIG1       -0.0653
     39 C          -3.0218   -5.6419   -2.2589 C.3     1  LIG1        0.0788
     40 H           1.6604   -1.3139    0.3481 H       1  LIG1        0.0379
     41 H          -0.9434   -0.2989    1.5809 H       1  LIG1        0.0419
     42 H           1.8738    1.0955    2.2246 H       1  LIG1        0.0404
     43 H           1.7937    3.5490    0.5123 H       1  LIG1        0.0622
     44 H           0.5838   -1.2587   -1.7381 H       1  LIG1        0.0622
     45 H           3.7007   -1.3551    1.6583 H       1  LIG1        0.0658
     46 H           0.0268    4.5719   -0.8869 H       1  LIG1        0.0636
     47 H           3.5118    2.5760   -0.1871 H       1  LIG1        0.0622
     48 H          -2.2379   -1.8230    2.2632 H       1  LIG1        0.0319
     49 H          -3.3424   -3.0259    1.7102 H       1  LIG1        0.0319
     50 H          -3.3456   -3.9263   -0.3854 H       1  LIG1        0.0657
     51 H          -2.7220    2.5179   -2.4314 H       1  LIG1        0.0328
     52 H          -1.7558    3.9601   -2.6768 H       1  LIG1        0.0328
     53 H          -3.4981   -0.0155    1.1027 H       1  LIG1        0.0361
     54 H          -0.2116   -3.0616   -3.1929 H       1  LIG1        0.0654
     55 H           5.8792    2.4105   -0.7625 H       1  LIG1        0.0655
     56 H          -3.8869    4.6329   -1.7758 H       1  LIG1        0.0269
     57 H          -2.6768    4.9353   -0.5329 H       1  LIG1        0.0269
     58 H          -5.3698   -2.2598    0.1432 H       1  LIG1        0.0236
     59 H          -4.4217   -1.1605   -0.8775 H       1  LIG1        0.0236
     60 H          -5.7607   -0.5376    0.0802 H       1  LIG1        0.0236
     61 H          -3.3449    2.8179    0.6362 H       1  LIG1        0.0263
     62 H          -4.5161    2.4793   -0.6404 H       1  LIG1        0.0263
     63 H           7.7770   -1.8201   -0.4523 H       1  LIG1        0.1166
     64 H           8.3081   -1.1395    1.1036 H       1  LIG1        0.1166
     65 H          -4.5593    4.9233    1.2096 H       1  LIG1        0.0230
     66 H          -5.6056    3.4981    1.3354 H       1  LIG1        0.0230
     67 H          -5.7484    4.5784   -0.0620 H       1  LIG1        0.0230
     68 H          -3.0816   -6.4403   -3.0056 H       1  LIG1        0.0660
     69 H          -4.0322   -5.2467   -2.1164 H       1  LIG1        0.0660
     70 H          -2.6325   -6.0837   -1.3344 H       1  LIG1        0.0660
@<TRIPOS>BOND
     1     1    16   ar
     2     2    16   ar
     3     3    28    1
     4     3    37    1
     5     4    32    1
     6     4    37    1
     7     5    31    1
     8     5    39    1
     9     6    36   ar
    10     7    36   ar
    11     8    13   ar
    12     8    20   ar
    13     9    10    1
    14     9    11    1
    15     9    16    1
    16    10    13    1
    17    10    14    1
    18    11    12    1
    19    11    15    1
    20    12    13   ar
    21    12    17   ar
    22    14    18   ar
    23    14    19   ar
    24    15    21   ar
    25    15    23   ar
    26    17    22   ar
    27    18    24    1
    28    18    25   ar
    29    19    29   ar
    30    20    22   ar
    31    20    26    1
    32    21    28   ar
    33    23    30   ar
    34    24    27    1
    35    25    31   ar
    36    26    33    1
    37    27    34    1
    38    27    36    1
    39    28    32   ar
    40    29    31   ar
    41    30    32   ar
    42    33    35    1
    43    35    38    1
    44     9    40    1
    45    10    41    1
    46    11    42    1
    47    17    43    1
    48    19    44    1
    49    21    45    1
    50    22    46    1
    51    23    47    1
    52    24    48    1
    53    24    49    1
    54    25    50    1
    55    26    51    1
    56    26    52    1
    57    27    53    1
    58    29    54    1
    59    30    55    1
    60    33    56    1
    61    33    57    1
    62    34    58    1
    63    34    59    1
    64    34    60    1
    65    35    61    1
    66    35    62    1
    67    37    63    1
    68    37    64    1
    69    38    65    1
    70    38    66    1
    71    38    67    1
    72    39    68    1
    73    39    69    1
    74    39    70    1
@<TRIPOS>MOLECULE
3047752
 70 74 0 0 0
SMALL
GASTEIGER

@<TRIPOS>ATOM
      1 O           2.1079   -2.0627    2.8814 O.co2   1  LIG1       -0.5495
      2 O           0.3986   -0.7149    3.5420 O.co2   1  LIG1       -0.5495
      3 O           6.6272    1.1910    2.1676 O.3     1  LIG1       -0.4526
      4 O           7.2269    0.5984   -0.0938 O.3     1  LIG1       -0.4526
      5 O          -2.1363   -4.3309   -3.1082 O.3     1  LIG1       -0.4951
      6 O          -5.9133   -1.6960    0.6693 O.co2   1  LIG1       -0.5495
      7 O          -5.7643   -3.8975    0.0960 O.co2   1  LIG1       -0.5495
      8 N          -1.2553    1.4502   -0.6326 N.ar    1  LIG1       -0.2556
      9 C           1.0542   -0.7209    1.2588 C.3     1  LIG1        0.0217
     10 C          -0.4053   -0.4854    0.7825 C.3     1  LIG1        0.0357
     11 C           1.7606    0.6595    1.3271 C.3     1  LIG1        0.0199
     12 C           0.8975    1.5157    0.4417 C.ar    1  LIG1       -0.0174
     13 C          -0.2983    0.8911    0.1343 C.ar    1  LIG1        0.0534
     14 C          -0.9202   -1.5601   -0.1888 C.ar    1  LIG1       -0.0344
     15 C           3.2212    0.6226    0.8892 C.ar    1  LIG1       -0.0356
     16 C           1.1745   -1.2301    2.6906 C.2     1  LIG1        0.0466
     17 C           1.1344    2.7956   -0.0300 C.ar    1  LIG1       -0.0546
     18 C          -2.1104   -2.3028    0.0391 C.ar    1  LIG1       -0.0395
     19 C          -0.2003   -1.7984   -1.3822 C.ar    1  LIG1       -0.0542
     20 C          -0.9988    2.6770   -1.1420 C.ar    1  LIG1        0.0416
     21 C           4.2265    0.9362    1.8208 C.ar    1  LIG1       -0.0124
     22 C           0.1685    3.3874   -0.8425 C.ar    1  LIG1       -0.0401
     23 C           3.5905    0.2751   -0.4347 C.ar    1  LIG1       -0.0543
     24 C          -2.9795   -2.0530    1.2710 C.3     1  LIG1       -0.0196
     25 C          -2.5086   -3.2497   -0.9300 C.ar    1  LIG1       -0.0165
     26 C          -2.0532    3.2939   -2.0285 C.3     1  LIG1       -0.0104
     27 C          -4.1373   -3.0223    1.5781 C.3     1  LIG1       -0.0003
     28 C           5.5393    0.9054    1.4016 C.ar    1  LIG1        0.1665
     29 C          -0.6272   -2.7340   -2.3248 C.ar    1  LIG1       -0.0197
     30 C           4.9307    0.2498   -0.8314 C.ar    1  LIG1       -0.0159
     31 C          -1.7914   -3.4572   -2.1092 C.ar    1  LIG1        0.1204
     32 C           5.8815    0.5707    0.1111 C.ar    1  LIG1        0.1662
     33 C          -2.8668    2.2852   -2.8515 C.3     1  LIG1       -0.0479
     34 C          -4.6454   -2.8068    3.0070 C.3     1  LIG1       -0.0570
     35 C          -2.0189    1.5261   -3.8772 C.3     1  LIG1       -0.0556
     36 C          -5.3830   -2.8410    0.6889 C.2     1  LIG1        0.0449
     37 C           7.6879    0.9253    1.2329 C.3     1  LIG1        0.2332
     38 C          -2.8544    0.5154   -4.6473 C.3     1  LIG1       -0.0653
     39 C          -3.4675   -4.8390   -3.0399 C.3     1  LIG1        0.0788
     40 H           1.5871   -1.4163    0.5992 H       1  LIG1        0.0379
     41 H          -1.0863   -0.3696    1.6289 H       1  LIG1        0.0419
     42 H           1.7033    1.1065    2.3298 H       1  LIG1        0.0404
     43 H           2.0501    3.3202    0.2201 H       1  LIG1        0.0622
     44 H           0.6988   -1.2272   -1.5942 H       1  LIG1        0.0622
     45 H           3.9796    1.1757    2.8502 H       1  LIG1        0.0658
     46 H           0.3277    4.3826   -1.2379 H       1  LIG1        0.0636
     47 H           2.8194    0.0159   -1.1580 H       1  LIG1        0.0622
     48 H          -3.3689   -1.0296    1.1945 H       1  LIG1        0.0319
     49 H          -2.3047   -2.0890    2.1361 H       1  LIG1        0.0319
     50 H          -3.4086   -3.8254   -0.7541 H       1  LIG1        0.0657
     51 H          -1.5825    4.0069   -2.7166 H       1  LIG1        0.0328
     52 H          -2.7353    3.8661   -1.3885 H       1  LIG1        0.0328
     53 H          -3.7830   -4.0585    1.5085 H       1  LIG1        0.0361
     54 H          -0.0575   -2.8811   -3.2357 H       1  LIG1        0.0654
     55 H           5.2086   -0.0239   -1.8418 H       1  LIG1        0.0655
     56 H          -3.6574    2.8318   -3.3811 H       1  LIG1        0.0269
     57 H          -3.3721    1.5740   -2.1865 H       1  LIG1        0.0269
     58 H          -4.9357   -1.7643    3.1827 H       1  LIG1        0.0236
     59 H          -3.8671   -3.0620    3.7348 H       1  LIG1        0.0236
     60 H          -5.5172   -3.4366    3.2189 H       1  LIG1        0.0236
     61 H          -1.1981    0.9940   -3.3842 H       1  LIG1        0.0263
     62 H          -1.5672    2.2346   -4.5812 H       1  LIG1        0.0263
     63 H           8.2900    0.0903    1.6111 H       1  LIG1        0.1166
     64 H           8.3268    1.8135    1.1688 H       1  LIG1        0.1166
     65 H          -3.2956   -0.2237   -3.9710 H       1  LIG1        0.0230
     66 H          -2.2309   -0.0179   -5.3716 H       1  LIG1        0.0230
     67 H          -3.6639    1.0099   -5.1936 H       1  LIG1        0.0230
     68 H          -3.6564   -5.3945   -3.9641 H       1  LIG1        0.0660
     69 H          -4.2050   -4.0308   -2.9858 H       1  LIG1        0.0660
     70 H          -3.5775   -5.5402   -2.2063 H       1  LIG1        0.0660
@<TRIPOS>BOND
     1     1    16   ar
     2     2    16   ar
     3     3    28    1
     4     3    37    1
     5     4    32    1
     6     4    37    1
     7     5    31    1
     8     5    39    1
     9     6    36   ar
    10     7    36   ar
    11     8    13   ar
    12     8    20   ar
    13     9    10    1
    14     9    11    1
    15     9    16    1
    16    10    13    1
    17    10    14    1
    18    11    12    1
    19    11    15    1
    20    12    13   ar
    21    12    17   ar
    22    14    18   ar
    23    14    19   ar
    24    15    21   ar
    25    15    23   ar
    26    17    22   ar
    27    18    24    1
    28    18    25   ar
    29    19    29   ar
    30    20    22   ar
    31    20    26    1
    32    21    28   ar
    33    23    30   ar
    34    24    27    1
    35    25    31   ar
    36    26    33    1
    37    27    34    1
    38    27    36    1
    39    28    32   ar
    40    29    31   ar
    41    30    32   ar
    42    33    35    1
    43    35    38    1
    44     9    40    1
    45    10    41    1
    46    11    42    1
    47    17    43    1
    48    19    44    1
    49    21    45    1
    50    22    46    1
    51    23    47    1
    52    24    48    1
    53    24    49    1
    54    25    50    1
    55    26    51    1
    56    26    52    1
    57    27    53    1
    58    29    54    1
    59    30    55    1
    60    33    56    1
    61    33    57    1
    62    34    58    1
    63    34    59    1
    64    34    60    1
    65    35    61    1
    66    35    62    1
    67    37    63    1
    68    37    64    1
    69    38    65    1
    70    38    66    1
    71    38    67    1
    72    39    68    1
    73    39    69    1
    74    39    70    1
@<TRIPOS>MOLECULE
3047752
 70 74 0 0 0
SMALL
GASTEIGER

@<TRIPOS>ATOM
      1 O           1.2809   -2.7956    2.2379 O.co2   1  LIG1       -0.5495
      2 O           1.4645   -0.8963    3.4735 O.co2   1  LIG1       -0.5495
      3 O           5.5393    0.8233   -2.0305 O.3     1  LIG1       -0.4526
      4 O           7.2087    0.5454   -0.3085 O.3     1  LIG1       -0.4526
      5 O          -2.1839   -4.3752   -3.0543 O.3     1  LIG1       -0.4951
      6 O          -4.9792   -1.3501    3.1061 O.co2   1  LIG1       -0.5495
      7 O          -5.9968   -3.3826    3.0337 O.co2   1  LIG1       -0.5495
      8 N          -1.2899    1.4361   -0.6026 N.ar    1  LIG1       -0.2556
      9 C           1.1443   -0.7260    1.1227 C.3     1  LIG1        0.0217
     10 C          -0.3532   -0.5137    0.7598 C.3     1  LIG1        0.0357
     11 C           1.7847    0.6731    1.2768 C.3     1  LIG1        0.0199
     12 C           0.8768    1.5374    0.4476 C.ar    1  LIG1       -0.0174
     13 C          -0.3074    0.8855    0.1421 C.ar    1  LIG1        0.0534
     14 C          -0.9265   -1.5609   -0.2046 C.ar    1  LIG1       -0.0344
     15 C           3.2506    0.6631    0.8503 C.ar    1  LIG1       -0.0356
     16 C           1.2788   -1.5432    2.4039 C.2     1  LIG1        0.0466
     17 C           1.0635    2.8440    0.0269 C.ar    1  LIG1       -0.0546
     18 C          -2.1100   -2.3009    0.0617 C.ar    1  LIG1       -0.0395
     19 C          -0.2596   -1.7703   -1.4354 C.ar    1  LIG1       -0.0542
     20 C          -1.0759    2.6914   -1.0628 C.ar    1  LIG1        0.0416
     21 C           3.6444    0.7638   -0.4972 C.ar    1  LIG1       -0.0124
     22 C           0.0715    3.4287   -0.7537 C.ar    1  LIG1       -0.0401
     23 C           4.2404    0.4794    1.8448 C.ar    1  LIG1       -0.0543
     24 C          -2.9396   -2.0576    1.3311 C.3     1  LIG1       -0.0196
     25 C          -2.5425   -3.2331   -0.9098 C.ar    1  LIG1       -0.0165
     26 C          -2.1396    3.2726   -1.9588 C.3     1  LIG1       -0.0104
     27 C          -4.0805   -3.0463    1.6666 C.3     1  LIG1       -0.0003
     28 C           4.9929    0.7224   -0.7877 C.ar    1  LIG1        0.1665
     29 C          -0.7072   -2.7047   -2.3661 C.ar    1  LIG1       -0.0197
     30 C           5.6002    0.4332    1.5193 C.ar    1  LIG1       -0.0159
     31 C          -1.8349   -3.4615   -2.0931 C.ar    1  LIG1        0.1204
     32 C           5.9428    0.5647    0.1927 C.ar    1  LIG1        0.1662
     33 C          -2.3539    2.4614   -3.2422 C.3     1  LIG1       -0.0479
     34 C          -3.5256   -4.3891    2.1537 C.3     1  LIG1       -0.0570
     35 C          -1.1243    2.4438   -4.1553 C.3     1  LIG1       -0.0556
     36 C          -5.0953   -2.5450    2.7190 C.2     1  LIG1        0.0449
     37 C           6.9374    0.6788   -1.7171 C.3     1  LIG1        0.2332
     38 C          -1.3994    1.6807   -5.4424 C.3     1  LIG1       -0.0653
     39 C          -2.8860   -5.5108   -2.5597 C.3     1  LIG1        0.0788
     40 H           1.6676   -1.2837    0.3344 H       1  LIG1        0.0379
     41 H          -0.9523   -0.4353    1.6724 H       1  LIG1        0.0419
     42 H           1.7168    1.0753    2.2954 H       1  LIG1        0.0404
     43 H           1.9654    3.3871    0.2847 H       1  LIG1        0.0622
     44 H           0.6282   -1.1910   -1.6755 H       1  LIG1        0.0622
     45 H           2.9168    0.8596   -1.2946 H       1  LIG1        0.0658
     46 H           0.1990    4.4394   -1.1238 H       1  LIG1        0.0636
     47 H           3.9315    0.3418    2.8832 H       1  LIG1        0.0622
     48 H          -3.3580   -1.0483    1.2278 H       1  LIG1        0.0319
     49 H          -2.2581   -2.0447    2.1910 H       1  LIG1        0.0319
     50 H          -3.4561   -3.7864   -0.7375 H       1  LIG1        0.0657
     51 H          -1.8974    4.3105   -2.2186 H       1  LIG1        0.0328
     52 H          -3.0783    3.3056   -1.3920 H       1  LIG1        0.0328
     53 H          -4.6989   -3.2111    0.7762 H       1  LIG1        0.0361
     54 H          -0.1621   -2.8487   -3.2921 H       1  LIG1        0.0654
     55 H           6.3485    0.2796    2.2867 H       1  LIG1        0.0655
     56 H          -3.1985    2.9000   -3.7883 H       1  LIG1        0.0269
     57 H          -2.6403    1.4318   -2.9944 H       1  LIG1        0.0269
     58 H          -3.0460   -4.2849    3.1326 H       1  LIG1        0.0236
     59 H          -2.7857   -4.8002    1.4609 H       1  LIG1        0.0236
     60 H          -4.3194   -5.1371    2.2523 H       1  LIG1        0.0236
     61 H          -0.2765    1.9731   -3.6452 H       1  LIG1        0.0263
     62 H          -0.8277    3.4701   -4.4015 H       1  LIG1        0.0263
     63 H           7.4704    1.5602   -2.0921 H       1  LIG1        0.1166
     64 H           7.3231   -0.2072   -2.2348 H       1  LIG1        0.1166
     65 H          -1.6750    0.6425   -5.2309 H       1  LIG1        0.0230
     66 H          -0.5070    1.6726   -6.0760 H       1  LIG1        0.0230
     67 H          -2.2131    2.1451   -6.0079 H       1  LIG1        0.0230
     68 H          -2.8686   -6.2777   -3.3407 H       1  LIG1        0.0660
     69 H          -3.9343   -5.2654   -2.3611 H       1  LIG1        0.0660
     70 H          -2.4032   -5.9339   -1.6708 H       1  LIG1        0.0660
@<TRIPOS>BOND
     1     1    16   ar
     2     2    16   ar
     3     3    28    1
     4     3    37    1
     5     4    32    1
     6     4    37    1
     7     5    31    1
     8     5    39    1
     9     6    36   ar
    10     7    36   ar
    11     8    13   ar
    12     8    20   ar
    13     9    10    1
    14     9    11    1
    15     9    16    1
    16    10    13    1
    17    10    14    1
    18    11    12    1
    19    11    15    1
    20    12    13   ar
    21    12    17   ar
    22    14    18   ar
    23    14    19   ar
    24    15    21   ar
    25    15    23   ar
    26    17    22   ar
    27    18    24    1
    28    18    25   ar
    29    19    29   ar
    30    20    22   ar
    31    20    26    1
    32    21    28   ar
    33    23    30   ar
    34    24    27    1
    35    25    31   ar
    36    26    33    1
    37    27    34    1
    38    27    36    1
    39    28    32   ar
    40    29    31   ar
    41    30    32   ar
    42    33    35    1
    43    35    38    1
    44     9    40    1
    45    10    41    1
    46    11    42    1
    47    17    43    1
    48    19    44    1
    49    21    45    1
    50    22    46    1
    51    23    47    1
    52    24    48    1
    53    24    49    1
    54    25    50    1
    55    26    51    1
    56    26    52    1
    57    27    53    1
    58    29    54    1
    59    30    55    1
    60    33    56    1
    61    33    57    1
    62    34    58    1
    63    34    59    1
    64    34    60    1
    65    35    61    1
    66    35    62    1
    67    37    63    1
    68    37    64    1
    69    38    65    1
    70    38    66    1
    71    38    67    1
    72    39    68    1
    73    39    69    1
    74    39    70    1
@<TRIPOS>MOLECULE
3047752
 70 74 0 0 0
SMALL
GASTEIGER

@<TRIPOS>ATOM
      1 O           0.0383   -1.1834    3.4514 O.co2   1  LIG1       -0.5495
      2 O           2.2809   -1.4174    3.1946 O.co2   1  LIG1       -0.5495
      3 O           6.5221    1.9851    1.7341 O.3     1  LIG1       -0.4526
      4 O           7.2060    0.7582   -0.2297 O.3     1  LIG1       -0.4526
      5 O          -2.1567   -4.5347   -2.9482 O.3     1  LIG1       -0.4951
      6 O          -5.8868   -1.6336    0.4940 O.co2   1  LIG1       -0.5495
      7 O          -5.9732   -3.8893    0.1829 O.co2   1  LIG1       -0.5495
      8 N          -1.2487    1.3992   -0.6880 N.ar    1  LIG1       -0.2556
      9 C           1.0181   -0.7387    1.3213 C.3     1  LIG1        0.0217
     10 C          -0.4192   -0.5161    0.7611 C.3     1  LIG1        0.0357
     11 C           1.7617    0.6290    1.2969 C.3     1  LIG1        0.0199
     12 C           0.9103    1.4611    0.3772 C.ar    1  LIG1       -0.0174
     13 C          -0.2873    0.8388    0.0750 C.ar    1  LIG1        0.0534
     14 C          -0.8973   -1.6158   -0.2020 C.ar    1  LIG1       -0.0344
     15 C           3.2234    0.5963    0.8507 C.ar    1  LIG1       -0.0356
     16 C           1.1066   -1.1606    2.7879 C.2     1  LIG1        0.0466
     17 C           1.1504    2.7375   -0.1088 C.ar    1  LIG1       -0.0546
     18 C          -2.1116   -2.3325   -0.0230 C.ar    1  LIG1       -0.0395
     19 C          -0.1167   -1.8964   -1.3445 C.ar    1  LIG1       -0.0542
     20 C          -1.0092    2.6420   -1.1639 C.ar    1  LIG1        0.0416
     21 C           4.1787    1.3232    1.5849 C.ar    1  LIG1       -0.0124
     22 C           0.1715    3.3390   -0.8958 C.ar    1  LIG1       -0.0401
     23 C           3.6408   -0.1046   -0.3070 C.ar    1  LIG1       -0.0543
     24 C          -3.0333   -2.0380    1.1589 C.3     1  LIG1       -0.0196
     25 C          -2.4722   -3.2954   -0.9909 C.ar    1  LIG1       -0.0165
     26 C          -2.1113    3.2742   -1.9722 C.3     1  LIG1       -0.0104
     27 C          -4.1850   -3.0140    1.4611 C.3     1  LIG1       -0.0003
     28 C           5.4866    1.3233    1.1496 C.ar    1  LIG1        0.1665
     29 C          -0.4923   -2.8609   -2.2805 C.ar    1  LIG1       -0.0197
     30 C           4.9775   -0.0965   -0.7204 C.ar    1  LIG1       -0.0159
     31 C          -1.6752   -3.5661   -2.1078 C.ar    1  LIG1        0.1204
     32 C           5.8755    0.6281    0.0270 C.ar    1  LIG1        0.1662
     33 C          -3.0556    4.1407   -1.1325 C.3     1  LIG1       -0.0479
     34 C          -4.6732   -2.8296    2.9028 C.3     1  LIG1       -0.0570
     35 C          -3.9090    3.3275   -0.1545 C.3     1  LIG1       -0.0556
     36 C          -5.4588   -2.8151    0.6200 C.2     1  LIG1        0.0449
     37 C           7.6105    1.5806    0.8826 C.3     1  LIG1        0.2332
     38 C          -4.9133    4.2080    0.5729 C.3     1  LIG1       -0.0653
     39 C          -1.4704   -4.7102   -4.1769 C.3     1  LIG1        0.0788
     40 H           1.5503   -1.5104    0.7526 H       1  LIG1        0.0379
     41 H          -1.1403   -0.3616    1.5661 H       1  LIG1        0.0419
     42 H           1.7063    1.1107    2.2846 H       1  LIG1        0.0404
     43 H           2.0701    3.2596    0.1300 H       1  LIG1        0.0622
     44 H           0.7958   -1.3365   -1.5228 H       1  LIG1        0.0622
     45 H           3.8980    1.8630    2.4836 H       1  LIG1        0.0658
     46 H           0.3224    4.3404   -1.2818 H       1  LIG1        0.0636
     47 H           2.9174   -0.6679   -0.8883 H       1  LIG1        0.0622
     48 H          -3.4267   -1.0226    1.0255 H       1  LIG1        0.0319
     49 H          -2.3937   -2.0307    2.0507 H       1  LIG1        0.0319
     50 H          -3.4063   -3.8461   -0.8954 H       1  LIG1        0.0657
     51 H          -2.6817    2.4894   -2.4849 H       1  LIG1        0.0328
     52 H          -1.6634    3.8888   -2.7633 H       1  LIG1        0.0328
     53 H          -3.8345   -4.0493    1.3640 H       1  LIG1        0.0361
     54 H           0.1582   -3.0250   -3.1297 H       1  LIG1        0.0654
     55 H           5.2914   -0.6475   -1.5989 H       1  LIG1        0.0655
     56 H          -3.7211    4.6813   -1.8173 H       1  LIG1        0.0269
     57 H          -2.4848    4.8983   -0.5811 H       1  LIG1        0.0269
     58 H          -4.9829   -1.7962    3.0968 H       1  LIG1        0.0236
     59 H          -3.8773   -3.0785    3.6130 H       1  LIG1        0.0236
     60 H          -5.5265   -3.4815    3.1221 H       1  LIG1        0.0236
     61 H          -3.2723    2.8363    0.5892 H       1  LIG1        0.0263
     62 H          -4.4474    2.5403   -0.6946 H       1  LIG1        0.0263
     63 H           8.3401    1.0251    1.4839 H       1  LIG1        0.1166
     64 H           8.0977    2.4804    0.4891 H       1  LIG1        0.1166
     65 H          -4.4061    4.9898    1.1468 H       1  LIG1        0.0230
     66 H          -5.5086    3.6079    1.2682 H       1  LIG1        0.0230
     67 H          -5.5984    4.6882   -0.1331 H       1  LIG1        0.0230
     68 H          -2.0133   -5.4611   -4.7593 H       1  LIG1        0.0660
     69 H          -0.4567   -5.0897   -4.0122 H       1  LIG1        0.0660
     70 H          -1.4559   -3.7843   -4.7620 H       1  LIG1        0.0660
@<TRIPOS>BOND
     1     1    16   ar
     2     2    16   ar
     3     3    28    1
     4     3    37    1
     5     4    32    1
     6     4    37    1
     7     5    31    1
     8     5    39    1
     9     6    36   ar
    10     7    36   ar
    11     8    13   ar
    12     8    20   ar
    13     9    10    1
    14     9    11    1
    15     9    16    1
    16    10    13    1
    17    10    14    1
    18    11    12    1
    19    11    15    1
    20    12    13   ar
    21    12    17   ar
    22    14    18   ar
    23    14    19   ar
    24    15    21   ar
    25    15    23   ar
    26    17    22   ar
    27    18    24    1
    28    18    25   ar
    29    19    29   ar
    30    20    22   ar
    31    20    26    1
    32    21    28   ar
    33    23    30   ar
    34    24    27    1
    35    25    31   ar
    36    26    33    1
    37    27    34    1
    38    27    36    1
    39    28    32   ar
    40    29    31   ar
    41    30    32   ar
    42    33    35    1
    43    35    38    1
    44     9    40    1
    45    10    41    1
    46    11    42    1
    47    17    43    1
    48    19    44    1
    49    21    45    1
    50    22    46    1
    51    23    47    1
    52    24    48    1
    53    24    49    1
    54    25    50    1
    55    26    51    1
    56    26    52    1
    57    27    53    1
    58    29    54    1
    59    30    55    1
    60    33    56    1
    61    33    57    1
    62    34    58    1
    63    34    59    1
    64    34    60    1
    65    35    61    1
    66    35    62    1
    67    37    63    1
    68    37    64    1
    69    38    65    1
    70    38    66    1
    71    38    67    1
    72    39    68    1
    73    39    69    1
    74    39    70    1
@<TRIPOS>MOLECULE
3047752
 70 74 0 0 0
SMALL
GASTEIGER

@<TRIPOS>ATOM
      1 O           0.2993   -1.0370    3.3583 O.co2   1  LIG1       -0.5495
      2 O           2.3034   -1.9232    2.7443 O.co2   1  LIG1       -0.5495
      3 O           6.6553    1.2081    2.2520 O.3     1  LIG1       -0.4526
      4 O           7.2949    0.6685   -0.0116 O.3     1  LIG1       -0.4526
      5 O          -2.5661   -4.6198   -2.6791 O.3     1  LIG1       -0.4951
      6 O          -5.5081    1.1875   -0.0288 O.co2   1  LIG1       -0.5495
      7 O          -6.8926   -0.4233    0.7767 O.co2   1  LIG1       -0.5495
      8 N          -1.0478    1.4625   -0.9325 N.ar    1  LIG1       -0.2556
      9 C           1.1149   -0.6645    1.1559 C.3     1  LIG1        0.0217
     10 C          -0.3392   -0.4499    0.6241 C.3     1  LIG1        0.0357
     11 C           1.7916    0.7216    1.2973 C.3     1  LIG1        0.0199
     12 C           0.9684    1.5652    0.3650 C.ar    1  LIG1       -0.0174
     13 C          -0.1595    0.8972   -0.0887 C.ar    1  LIG1        0.0534
     14 C          -0.9517   -1.5774   -0.2323 C.ar    1  LIG1       -0.0344
     15 C           3.2697    0.7046    0.8964 C.ar    1  LIG1       -0.0356
     16 C           1.2315   -1.2729    2.5460 C.2     1  LIG1        0.0466
     17 C           1.1985    2.8757   -0.0240 C.ar    1  LIG1       -0.0546
     18 C          -2.3112   -1.5752   -0.6500 C.ar    1  LIG1       -0.0395
     19 C          -0.1701   -2.6909   -0.6162 C.ar    1  LIG1       -0.0542
     20 C          -0.8290    2.7452   -1.3107 C.ar    1  LIG1        0.0416
     21 C           4.2574    0.9871    1.8552 C.ar    1  LIG1       -0.0124
     22 C           0.2768    3.4789   -0.8710 C.ar    1  LIG1       -0.0401
     23 C           3.6667    0.3902   -0.4309 C.ar    1  LIG1       -0.0543
     24 C          -3.3299   -0.4975   -0.2754 C.3     1  LIG1       -0.0196
     25 C          -2.7740   -2.6090   -1.5026 C.ar    1  LIG1       -0.0165
     26 C          -1.8937    3.4446   -2.1276 C.3     1  LIG1       -0.0104
     27 C          -4.6264   -1.0112    0.3801 C.3     1  LIG1       -0.0003
     28 C           5.5792    0.9555    1.4588 C.ar    1  LIG1        0.1665
     29 C          -0.6653   -3.7241   -1.4214 C.ar    1  LIG1       -0.0197
     30 C           5.0129    0.3627   -0.8029 C.ar    1  LIG1       -0.0159
     31 C          -1.9722   -3.6848   -1.8751 C.ar    1  LIG1        0.1204
     32 C           5.9448    0.6506    0.1673 C.ar    1  LIG1        0.1662
     33 C          -2.7471    2.5138   -2.9930 C.3     1  LIG1       -0.0479
     34 C          -4.3772   -1.4652    1.8169 C.3     1  LIG1       -0.0570
     35 C          -3.7574    3.2593   -3.8684 C.3     1  LIG1       -0.0556
     36 C          -5.7708    0.0260    0.3885 C.2     1  LIG1        0.0449
     37 C           7.7310    0.9592    1.3312 C.3     1  LIG1        0.2332
     38 C          -4.8481    3.9574   -3.0681 C.3     1  LIG1       -0.0653
     39 C          -1.9235   -5.8852   -2.7321 C.3     1  LIG1        0.0788
     40 H           1.7107   -1.2608    0.4619 H       1  LIG1        0.0379
     41 H          -1.0172   -0.2833    1.4696 H       1  LIG1        0.0419
     42 H           1.6806    1.1367    2.3078 H       1  LIG1        0.0404
     43 H           2.0613    3.4205    0.3423 H       1  LIG1        0.0622
     44 H           0.8568   -2.8063   -0.2854 H       1  LIG1        0.0622
     45 H           3.9919    1.1969    2.8864 H       1  LIG1        0.0658
     46 H           0.4052    4.5139   -1.1646 H       1  LIG1        0.0636
     47 H           2.9079    0.1527   -1.1757 H       1  LIG1        0.0622
     48 H          -3.5780    0.0173   -1.2102 H       1  LIG1        0.0319
     49 H          -2.8919    0.2555    0.3849 H       1  LIG1        0.0319
     50 H          -3.7975   -2.5760   -1.8708 H       1  LIG1        0.0657
     51 H          -1.4082    4.1789   -2.7835 H       1  LIG1        0.0328
     52 H          -2.5287    3.9996   -1.4274 H       1  LIG1        0.0328
     53 H          -5.0209   -1.8662   -0.1832 H       1  LIG1        0.0361
     54 H           0.0097   -4.5325   -1.6740 H       1  LIG1        0.0654
     55 H           5.3066    0.1117   -1.8140 H       1  LIG1        0.0655
     56 H          -3.2890    1.8076   -2.3591 H       1  LIG1        0.0269
     57 H          -2.0926    1.9197   -3.6420 H       1  LIG1        0.0269
     58 H          -4.0118   -0.6390    2.4346 H       1  LIG1        0.0236
     59 H          -3.6373   -2.2704    1.8504 H       1  LIG1        0.0236
     60 H          -5.2934   -1.8453    2.2817 H       1  LIG1        0.0236
     61 H          -4.2322    2.5362   -4.5413 H       1  LIG1        0.0263
     62 H          -3.2408    3.9909   -4.5000 H       1  LIG1        0.0263
     63 H           8.3219    0.1110    1.6989 H       1  LIG1        0.1166
     64 H           8.3774    1.8442    1.2999 H       1  LIG1        0.1166
     65 H          -5.3606    3.2532   -2.4047 H       1  LIG1        0.0230
     66 H          -5.5929    4.3883   -3.7437 H       1  LIG1        0.0230
     67 H          -4.4420    4.7714   -2.4600 H       1  LIG1        0.0230
     68 H          -2.5845   -6.5744   -3.2670 H       1  LIG1        0.0660
     69 H          -1.7587   -6.2960   -1.7295 H       1  LIG1        0.0660
     70 H          -0.9845   -5.8261   -3.2930 H       1  LIG1        0.0660
@<TRIPOS>BOND
     1     1    16   ar
     2     2    16   ar
     3     3    28    1
     4     3    37    1
     5     4    32    1
     6     4    37    1
     7     5    31    1
     8     5    39    1
     9     6    36   ar
    10     7    36   ar
    11     8    13   ar
    12     8    20   ar
    13     9    10    1
    14     9    11    1
    15     9    16    1
    16    10    13    1
    17    10    14    1
    18    11    12    1
    19    11    15    1
    20    12    13   ar
    21    12    17   ar
    22    14    18   ar
    23    14    19   ar
    24    15    21   ar
    25    15    23   ar
    26    17    22   ar
    27    18    24    1
    28    18    25   ar
    29    19    29   ar
    30    20    22   ar
    31    20    26    1
    32    21    28   ar
    33    23    30   ar
    34    24    27    1
    35    25    31   ar
    36    26    33    1
    37    27    34    1
    38    27    36    1
    39    28    32   ar
    40    29    31   ar
    41    30    32   ar
    42    33    35    1
    43    35    38    1
    44     9    40    1
    45    10    41    1
    46    11    42    1
    47    17    43    1
    48    19    44    1
    49    21    45    1
    50    22    46    1
    51    23    47    1
    52    24    48    1
    53    24    49    1
    54    25    50    1
    55    26    51    1
    56    26    52    1
    57    27    53    1
    58    29    54    1
    59    30    55    1
    60    33    56    1
    61    33    57    1
    62    34    58    1
    63    34    59    1
    64    34    60    1
    65    35    61    1
    66    35    62    1
    67    37    63    1
    68    37    64    1
    69    38    65    1
    70    38    66    1
    71    38    67    1
    72    39    68    1
    73    39    69    1
    74    39    70    1
@<TRIPOS>MOLECULE
3047752
 70 74 0 0 0
SMALL
GASTEIGER

@<TRIPOS>ATOM
      1 O           0.8899   -0.6797    3.4685 O.co2   1  LIG1       -0.5495
      2 O           2.2357   -2.2598    2.5306 O.co2   1  LIG1       -0.5495
      3 O           5.7008    0.7483   -2.0841 O.3     1  LIG1       -0.4526
      4 O           7.3489    0.4768   -0.3402 O.3     1  LIG1       -0.4526
      5 O          -2.2387   -4.4054   -2.8624 O.3     1  LIG1       -0.4951
      6 O          -4.9870   -2.4023    3.2283 O.co2   1  LIG1       -0.5495
      7 O          -4.3594   -4.4707    3.9322 O.co2   1  LIG1       -0.5495
      8 N          -1.2073    1.5418   -0.5773 N.ar    1  LIG1       -0.2556
      9 C           1.2098   -0.6822    1.1191 C.3     1  LIG1        0.0217
     10 C          -0.2861   -0.4235    0.7851 C.3     1  LIG1        0.0357
     11 C           1.9140    0.6941    1.1934 C.3     1  LIG1        0.0199
     12 C           1.0219    1.5551    0.3436 C.ar    1  LIG1       -0.0174
     13 C          -0.2072    0.9549    0.1200 C.ar    1  LIG1        0.0534
     14 C          -0.8979   -1.4975   -0.1243 C.ar    1  LIG1       -0.0344
     15 C           3.3781    0.6317    0.7699 C.ar    1  LIG1       -0.0356
     16 C           1.4322   -1.2820    2.5016 C.2     1  LIG1        0.0466
     17 C           1.2570    2.8270   -0.1471 C.ar    1  LIG1       -0.0546
     18 C          -2.0490   -2.2554    0.1986 C.ar    1  LIG1       -0.0395
     19 C          -0.2831   -1.7357   -1.3777 C.ar    1  LIG1       -0.0542
     20 C          -0.9672    2.7810   -1.0752 C.ar    1  LIG1        0.0416
     21 C           3.7872    0.7091   -0.5730 C.ar    1  LIG1       -0.0124
     22 C           0.2542    3.4379   -0.8937 C.ar    1  LIG1       -0.0401
     23 C           4.3580    0.4478    1.7769 C.ar    1  LIG1       -0.0543
     24 C          -2.8854   -2.0965    1.4679 C.3     1  LIG1       -0.0196
     25 C          -2.5202   -3.2140   -0.7349 C.ar    1  LIG1       -0.0165
     26 C          -2.0838    3.3846   -1.8944 C.3     1  LIG1       -0.0104
     27 C          -2.9963   -3.3810    2.3158 C.3     1  LIG1       -0.0003
     28 C           5.1382    0.6568   -0.8477 C.ar    1  LIG1        0.1665
     29 C          -0.7556   -2.7023   -2.2681 C.ar    1  LIG1       -0.0197
     30 C           5.7197    0.3854    1.4683 C.ar    1  LIG1       -0.0159
     31 C          -1.8644   -3.4653   -1.9381 C.ar    1  LIG1        0.1204
     32 C           6.0782    0.5029    0.1452 C.ar    1  LIG1        0.1662
     33 C          -2.2697    4.9056   -1.8025 C.3     1  LIG1       -0.0479
     34 C          -1.7142   -3.6290    3.1092 C.3     1  LIG1       -0.0570
     35 C          -2.6495    5.3872   -0.4005 C.3     1  LIG1       -0.0556
     36 C          -4.2128   -3.3991    3.2665 C.2     1  LIG1        0.0449
     37 C           7.0949    0.6045   -1.7525 C.3     1  LIG1        0.2332
     38 C          -2.7617    6.9037   -0.3511 C.3     1  LIG1       -0.0653
     39 C          -2.9759   -5.5019   -2.3299 C.3     1  LIG1        0.0788
     40 H           1.6903   -1.3225    0.3681 H       1  LIG1        0.0379
     41 H          -0.8679   -0.2929    1.6985 H       1  LIG1        0.0419
     42 H           1.8740    1.1413    2.1966 H       1  LIG1        0.0404
     43 H           2.1999    3.3294    0.0373 H       1  LIG1        0.0622
     44 H           0.5889   -1.1550   -1.6700 H       1  LIG1        0.0622
     45 H           3.0690    0.8058   -1.3797 H       1  LIG1        0.0658
     46 H           0.4350    4.4199   -1.3115 H       1  LIG1        0.0636
     47 H           4.0402    0.3208    2.8132 H       1  LIG1        0.0622
     48 H          -3.8804   -1.7780    1.1282 H       1  LIG1        0.0319
     49 H          -2.5314   -1.2784    2.0986 H       1  LIG1        0.0319
     50 H          -3.4308   -3.7525   -0.4865 H       1  LIG1        0.0657
     51 H          -3.0285    2.8999   -1.6170 H       1  LIG1        0.0328
     52 H          -1.8951    3.1219   -2.9430 H       1  LIG1        0.0328
     53 H          -3.1497   -4.2491    1.6631 H       1  LIG1        0.0361
     54 H          -0.2439   -2.8624   -3.2105 H       1  LIG1        0.0654
     55 H           6.4574    0.2306    2.2455 H       1  LIG1        0.0655
     56 H          -3.0659    5.1943   -2.5008 H       1  LIG1        0.0269
     57 H          -1.3665    5.4234   -2.1452 H       1  LIG1        0.0269
     58 H          -1.5227   -2.8172    3.8186 H       1  LIG1        0.0236
     59 H          -0.8498   -3.7099    2.4412 H       1  LIG1        0.0236
     60 H          -1.7694   -4.5618    3.6805 H       1  LIG1        0.0236
     61 H          -1.9030    5.0688    0.3347 H       1  LIG1        0.0263
     62 H          -3.6066    4.9430   -0.1040 H       1  LIG1        0.0263
     63 H           7.6332    1.4843   -2.1235 H       1  LIG1        0.1166
     64 H           7.4872   -0.2838   -2.2615 H       1  LIG1        0.1166
     65 H          -1.8059    7.3743   -0.6045 H       1  LIG1        0.0230
     66 H          -3.0432    7.2308    0.6547 H       1  LIG1        0.0230
     67 H          -3.5196    7.2662   -1.0525 H       1  LIG1        0.0230
     68 H          -3.0020   -6.2862   -3.0930 H       1  LIG1        0.0660
     69 H          -4.0099   -5.2115   -2.1190 H       1  LIG1        0.0660
     70 H          -2.4933   -5.9231   -1.4405 H       1  LIG1        0.0660
@<TRIPOS>BOND
     1     1    16   ar
     2     2    16   ar
     3     3    28    1
     4     3    37    1
     5     4    32    1
     6     4    37    1
     7     5    31    1
     8     5    39    1
     9     6    36   ar
    10     7    36   ar
    11     8    13   ar
    12     8    20   ar
    13     9    10    1
    14     9    11    1
    15     9    16    1
    16    10    13    1
    17    10    14    1
    18    11    12    1
    19    11    15    1
    20    12    13   ar
    21    12    17   ar
    22    14    18   ar
    23    14    19   ar
    24    15    21   ar
    25    15    23   ar
    26    17    22   ar
    27    18    24    1
    28    18    25   ar
    29    19    29   ar
    30    20    22   ar
    31    20    26    1
    32    21    28   ar
    33    23    30   ar
    34    24    27    1
    35    25    31   ar
    36    26    33    1
    37    27    34    1
    38    27    36    1
    39    28    32   ar
    40    29    31   ar
    41    30    32   ar
    42    33    35    1
    43    35    38    1
    44     9    40    1
    45    10    41    1
    46    11    42    1
    47    17    43    1
    48    19    44    1
    49    21    45    1
    50    22    46    1
    51    23    47    1
    52    24    48    1
    53    24    49    1
    54    25    50    1
    55    26    51    1
    56    26    52    1
    57    27    53    1
    58    29    54    1
    59    30    55    1
    60    33    56    1
    61    33    57    1
    62    34    58    1
    63    34    59    1
    64    34    60    1
    65    35    61    1
    66    35    62    1
    67    37    63    1
    68    37    64    1
    69    38    65    1
    70    38    66    1
    71    38    67    1
    72    39    68    1
    73    39    69    1
    74    39    70    1
@<TRIPOS>MOLECULE
3047752
 70 74 0 0 0
SMALL
GASTEIGER

@<TRIPOS>ATOM
      1 O           0.7362   -0.8649    3.4936 O.co2   1  LIG1       -0.5495
      2 O           2.1369   -2.3832    2.5394 O.co2   1  LIG1       -0.5495
      3 O           5.5401    0.8554   -2.0065 O.3     1  LIG1       -0.4526
      4 O           7.2369    0.5846   -0.3105 O.3     1  LIG1       -0.4526
      5 O          -2.3936   -4.3317   -3.0122 O.3     1  LIG1       -0.4951
      6 O          -5.5248   -1.1878    3.2469 O.co2   1  LIG1       -0.5495
      7 O          -6.2548   -1.5370    1.1191 O.co2   1  LIG1       -0.5495
      8 N          -1.1624    1.4669   -0.6437 N.ar    1  LIG1       -0.2556
      9 C           1.1821   -0.7294    1.1651 C.3     1  LIG1        0.0217
     10 C          -0.2969   -0.5060    0.7350 C.3     1  LIG1        0.0357
     11 C           1.8329    0.6649    1.3512 C.3     1  LIG1        0.0199
     12 C           0.9342    1.5530    0.5373 C.ar    1  LIG1       -0.0174
     13 C          -0.2147    0.8946    0.1307 C.ar    1  LIG1        0.0534
     14 C          -0.9173   -1.5308   -0.2232 C.ar    1  LIG1       -0.0344
     15 C           3.2955    0.6659    0.9076 C.ar    1  LIG1       -0.0356
     16 C           1.3361   -1.4029    2.5232 C.2     1  LIG1        0.0466
     17 C           1.1067    2.8882    0.2142 C.ar    1  LIG1       -0.0546
     18 C          -2.3045   -1.8297   -0.2253 C.ar    1  LIG1       -0.0395
     19 C          -0.1182   -2.1612   -1.2004 C.ar    1  LIG1       -0.0542
     20 C          -0.9649    2.7587   -1.0072 C.ar    1  LIG1        0.0416
     21 C           3.6699    0.7776   -0.4446 C.ar    1  LIG1       -0.0124
     22 C           0.1333    3.5037   -0.5680 C.ar    1  LIG1       -0.0401
     23 C           4.3015    0.4856    1.8873 C.ar    1  LIG1       -0.0543
     24 C          -3.3396   -1.1739    0.6883 C.3     1  LIG1       -0.0196
     25 C          -2.8159   -2.7603   -1.1649 C.ar    1  LIG1       -0.0165
     26 C          -2.0302    3.3665   -1.8858 C.3     1  LIG1       -0.0104
     27 C          -4.0327   -2.1642    1.6450 C.3     1  LIG1       -0.0003
     28 C           5.0127    0.7475   -0.7566 C.ar    1  LIG1        0.1665
     29 C          -0.6437   -3.0903   -2.1042 C.ar    1  LIG1       -0.0197
     30 C           5.6562    0.4537    1.5407 C.ar    1  LIG1       -0.0159
     31 C          -1.9943   -3.4069   -2.0842 C.ar    1  LIG1        0.1204
     32 C           5.9790    0.5933    0.2099 C.ar    1  LIG1        0.1662
     33 C          -1.5283    4.2176   -3.0623 C.3     1  LIG1       -0.0479
     34 C          -3.1339   -2.5367    2.8181 C.3     1  LIG1       -0.0570
     35 C          -0.5928    3.5061   -4.0453 C.3     1  LIG1       -0.0556
     36 C          -5.3884   -1.5538    2.0468 C.2     1  LIG1        0.0449
     37 C           6.9428    0.7131   -1.7155 C.3     1  LIG1        0.2332
     38 C          -1.2386    2.3287   -4.7567 C.3     1  LIG1       -0.0653
     39 C          -3.7264   -4.8099   -2.8740 C.3     1  LIG1        0.0788
     40 H           1.7495   -1.3098    0.4322 H       1  LIG1        0.0379
     41 H          -0.9101   -0.4469    1.6394 H       1  LIG1        0.0419
     42 H           1.7801    1.0380    2.3828 H       1  LIG1        0.0404
     43 H           1.9760    3.4352    0.5586 H       1  LIG1        0.0622
     44 H           0.9393   -1.9331   -1.2875 H       1  LIG1        0.0622
     45 H           2.9285    0.8729   -1.2317 H       1  LIG1        0.0658
     46 H           0.2445    4.5476   -0.8330 H       1  LIG1        0.0636
     47 H           4.0119    0.3348    2.9280 H       1  LIG1        0.0622
     48 H          -4.0734   -0.6943    0.0252 H       1  LIG1        0.0319
     49 H          -2.9163   -0.3422    1.2585 H       1  LIG1        0.0319
     50 H          -3.8874   -2.9428   -1.1495 H       1  LIG1        0.0657
     51 H          -2.6673    3.9924   -1.2485 H       1  LIG1        0.0328
     52 H          -2.6772    2.5691   -2.2717 H       1  LIG1        0.0328
     53 H          -4.2821   -3.0976    1.1239 H       1  LIG1        0.0361
     54 H           0.0143   -3.5639   -2.8255 H       1  LIG1        0.0654
     55 H           6.4180    0.3007    2.2950 H       1  LIG1        0.0655
     56 H          -1.0142    5.1081   -2.6806 H       1  LIG1        0.0269
     57 H          -2.4015    4.5909   -3.6125 H       1  LIG1        0.0269
     58 H          -2.7986   -1.6511    3.3680 H       1  LIG1        0.0236
     59 H          -2.2460   -3.0773    2.4729 H       1  LIG1        0.0236
     60 H          -3.6637   -3.1870    3.5226 H       1  LIG1        0.0236
     61 H           0.3174    3.1696   -3.5371 H       1  LIG1        0.0263
     62 H          -0.2722    4.2342   -4.8007 H       1  LIG1        0.0263
     63 H           7.4694    1.5934   -2.1019 H       1  LIG1        0.1166
     64 H           7.3211   -0.1746   -2.2361 H       1  LIG1        0.1166
     65 H          -1.4819    1.5225   -4.0588 H       1  LIG1        0.0230
     66 H          -0.5522    1.9231   -5.5072 H       1  LIG1        0.0230
     67 H          -2.1559    2.6351   -5.2691 H       1  LIG1        0.0230
     68 H          -3.8685   -5.6119   -3.6050 H       1  LIG1        0.0660
     69 H          -4.4517   -4.0223   -3.1028 H       1  LIG1        0.0660
     70 H          -3.8996   -5.2355   -1.8796 H       1  LIG1        0.0660
@<TRIPOS>BOND
     1     1    16   ar
     2     2    16   ar
     3     3    28    1
     4     3    37    1
     5     4    32    1
     6     4    37    1
     7     5    31    1
     8     5    39    1
     9     6    36   ar
    10     7    36   ar
    11     8    13   ar
    12     8    20   ar
    13     9    10    1
    14     9    11    1
    15     9    16    1
    16    10    13    1
    17    10    14    1
    18    11    12    1
    19    11    15    1
    20    12    13   ar
    21    12    17   ar
    22    14    18   ar
    23    14    19   ar
    24    15    21   ar
    25    15    23   ar
    26    17    22   ar
    27    18    24    1
    28    18    25   ar
    29    19    29   ar
    30    20    22   ar
    31    20    26    1
    32    21    28   ar
    33    23    30   ar
    34    24    27    1
    35    25    31   ar
    36    26    33    1
    37    27    34    1
    38    27    36    1
    39    28    32   ar
    40    29    31   ar
    41    30    32   ar
    42    33    35    1
    43    35    38    1
    44     9    40    1
    45    10    41    1
    46    11    42    1
    47    17    43    1
    48    19    44    1
    49    21    45    1
    50    22    46    1
    51    23    47    1
    52    24    48    1
    53    24    49    1
    54    25    50    1
    55    26    51    1
    56    26    52    1
    57    27    53    1
    58    29    54    1
    59    30    55    1
    60    33    56    1
    61    33    57    1
    62    34    58    1
    63    34    59    1
    64    34    60    1
    65    35    61    1
    66    35    62    1
    67    37    63    1
    68    37    64    1
    69    38    65    1
    70    38    66    1
    71    38    67    1
    72    39    68    1
    73    39    69    1
    74    39    70    1
@<TRIPOS>MOLECULE
3047752
 70 74 0 0 0
SMALL
GASTEIGER

@<TRIPOS>ATOM
      1 O           0.8130   -0.8063    3.4190 O.co2   1  LIG1       -0.5495
      2 O           1.8393   -2.5225    2.3287 O.co2   1  LIG1       -0.5495
      3 O           6.6527    1.1799    2.3183 O.3     1  LIG1       -0.4526
      4 O           7.3326    0.7036    0.0513 O.3     1  LIG1       -0.4526
      5 O          -2.4387   -4.6573   -2.7000 O.3     1  LIG1       -0.4951
      6 O          -5.5017    1.0926    1.0337 O.co2   1  LIG1       -0.5495
      7 O          -6.7587   -0.3966   -0.1490 O.co2   1  LIG1       -0.5495
      8 N          -1.0740    1.4576   -0.9154 N.ar    1  LIG1       -0.2556
      9 C           1.1648   -0.6629    1.0736 C.3     1  LIG1        0.0217
     10 C          -0.3155   -0.4559    0.6254 C.3     1  LIG1        0.0357
     11 C           1.8093    0.7303    1.2597 C.3     1  LIG1        0.0199
     12 C           0.9676    1.5739    0.3449 C.ar    1  LIG1       -0.0174
     13 C          -0.1714    0.9026   -0.0793 C.ar    1  LIG1        0.0534
     14 C          -0.9592   -1.5704   -0.2222 C.ar    1  LIG1       -0.0344
     15 C           3.2922    0.7327    0.8829 C.ar    1  LIG1       -0.0356
     16 C           1.2592   -1.3983    2.3988 C.2     1  LIG1        0.0466
     17 C           1.1895    2.8820   -0.0541 C.ar    1  LIG1       -0.0546
     18 C          -2.3335   -1.5637   -0.5856 C.ar    1  LIG1       -0.0395
     19 C          -0.1910   -2.6720   -0.6603 C.ar    1  LIG1       -0.0542
     20 C          -0.8676    2.7442   -1.2921 C.ar    1  LIG1        0.0416
     21 C           4.2611    0.9819    1.8684 C.ar    1  LIG1       -0.0124
     22 C           0.2540    3.4770   -0.8920 C.ar    1  LIG1       -0.0401
     23 C           3.7128    0.4575   -0.4453 C.ar    1  LIG1       -0.0543
     24 C          -3.3413   -0.5047   -0.1356 C.3     1  LIG1       -0.0196
     25 C          -2.8303   -2.5711   -1.4534 C.ar    1  LIG1       -0.0165
     26 C          -1.8756    3.3735   -2.2261 C.3     1  LIG1       -0.0104
     27 C          -4.6009   -1.0665    0.5499 C.3     1  LIG1       -0.0003
     28 C           5.5902    0.9563    1.4962 C.ar    1  LIG1        0.1665
     29 C          -0.7163   -3.6762   -1.4804 C.ar    1  LIG1       -0.0197
     30 C           5.0659    0.4339   -0.7924 C.ar    1  LIG1       -0.0159
     31 C          -2.0382   -3.6292   -1.8895 C.ar    1  LIG1        0.1204
     32 C           5.9802    0.6883    0.2033 C.ar    1  LIG1        0.1662
     33 C          -3.3261    3.0588   -1.8510 C.3     1  LIG1       -0.0479
     34 C          -4.3462   -1.4367    2.0050 C.3     1  LIG1       -0.0570
     35 C          -4.3518    3.8290   -2.6848 C.3     1  LIG1       -0.0556
     36 C          -5.7204   -0.0175    0.4741 C.2     1  LIG1        0.0449
     37 C           7.7459    0.9610    1.4075 C.3     1  LIG1        0.2332
     38 C          -4.3328    3.4510   -4.1581 C.3     1  LIG1       -0.0653
     39 C          -3.8440   -4.7962   -2.8698 C.3     1  LIG1        0.0788
     40 H           1.7367   -1.1998    0.3121 H       1  LIG1        0.0379
     41 H          -0.9441   -0.3127    1.5145 H       1  LIG1        0.0419
     42 H           1.6866    1.1316    2.2735 H       1  LIG1        0.0404
     43 H           2.0632    3.4269    0.2856 H       1  LIG1        0.0622
     44 H           0.8427   -2.8030   -0.3545 H       1  LIG1        0.0622
     45 H           3.9764    1.1672    2.8991 H       1  LIG1        0.0658
     46 H           0.3936    4.5012   -1.2186 H       1  LIG1        0.0636
     47 H           2.9677    0.2428   -1.2112 H       1  LIG1        0.0622
     48 H          -3.6334    0.0415   -1.0393 H       1  LIG1        0.0319
     49 H          -2.8785    0.2285    0.5302 H       1  LIG1        0.0319
     50 H          -3.8647   -2.4912   -1.7745 H       1  LIG1        0.0657
     51 H          -1.6545    3.0217   -3.2399 H       1  LIG1        0.0328
     52 H          -1.7429    4.4627   -2.2247 H       1  LIG1        0.0328
     53 H          -4.9658   -1.9632    0.0371 H       1  LIG1        0.0361
     54 H          -0.0793   -4.5010   -1.7842 H       1  LIG1        0.0654
     55 H           5.3776    0.2090   -1.8043 H       1  LIG1        0.0655
     56 H          -3.4908    3.2949   -0.7919 H       1  LIG1        0.0269
     57 H          -3.5139    1.9876   -1.9683 H       1  LIG1        0.0269
     58 H          -3.9379   -0.5955    2.5748 H       1  LIG1        0.0236
     59 H          -3.6374   -2.2685    2.0743 H       1  LIG1        0.0236
     60 H          -5.2764   -1.7477    2.4935 H       1  LIG1        0.0236
     61 H          -4.1877    4.9076   -2.5803 H       1  LIG1        0.0263
     62 H          -5.3511    3.6192   -2.2847 H       1  LIG1        0.0263
     63 H           8.3347    0.1070    1.7624 H       1  LIG1        0.1166
     64 H           8.3864    1.8502    1.4108 H       1  LIG1        0.1166
     65 H          -3.3966    3.7531   -4.6366 H       1  LIG1        0.0230
     66 H          -5.1516    3.9507   -4.6853 H       1  LIG1        0.0230
     67 H          -4.4555    2.3710   -4.2884 H       1  LIG1        0.0230
     68 H          -4.0211   -5.7286   -3.4147 H       1  LIG1        0.0660
     69 H          -4.2487   -3.9780   -3.4740 H       1  LIG1        0.0660
     70 H          -4.3591   -4.8735   -1.9063 H       1  LIG1        0.0660
@<TRIPOS>BOND
     1     1    16   ar
     2     2    16   ar
     3     3    28    1
     4     3    37    1
     5     4    32    1
     6     4    37    1
     7     5    31    1
     8     5    39    1
     9     6    36   ar
    10     7    36   ar
    11     8    13   ar
    12     8    20   ar
    13     9    10    1
    14     9    11    1
    15     9    16    1
    16    10    13    1
    17    10    14    1
    18    11    12    1
    19    11    15    1
    20    12    13   ar
    21    12    17   ar
    22    14    18   ar
    23    14    19   ar
    24    15    21   ar
    25    15    23   ar
    26    17    22   ar
    27    18    24    1
    28    18    25   ar
    29    19    29   ar
    30    20    22   ar
    31    20    26    1
    32    21    28   ar
    33    23    30   ar
    34    24    27    1
    35    25    31   ar
    36    26    33    1
    37    27    34    1
    38    27    36    1
    39    28    32   ar
    40    29    31   ar
    41    30    32   ar
    42    33    35    1
    43    35    38    1
    44     9    40    1
    45    10    41    1
    46    11    42    1
    47    17    43    1
    48    19    44    1
    49    21    45    1
    50    22    46    1
    51    23    47    1
    52    24    48    1
    53    24    49    1
    54    25    50    1
    55    26    51    1
    56    26    52    1
    57    27    53    1
    58    29    54    1
    59    30    55    1
    60    33    56    1
    61    33    57    1
    62    34    58    1
    63    34    59    1
    64    34    60    1
    65    35    61    1
    66    35    62    1
    67    37    63    1
    68    37    64    1
    69    38    65    1
    70    38    66    1
    71    38    67    1
    72    39    68    1
    73    39    69    1
    74    39    70    1
@<TRIPOS>MOLECULE
3047752
 70 74 0 0 0
SMALL
GASTEIGER

@<TRIPOS>ATOM
      1 O           0.6907   -0.7250    3.4929 O.co2   1  LIG1       -0.5495
      2 O           2.0898   -2.2912    2.6162 O.co2   1  LIG1       -0.5495
      3 O           5.5729    0.8406   -2.0260 O.3     1  LIG1       -0.4526
      4 O           7.2269    0.4951   -0.3012 O.3     1  LIG1       -0.4526
      5 O          -2.2748   -4.1988   -3.1851 O.3     1  LIG1       -0.4951
      6 O          -5.2822   -1.3271    2.7529 O.co2   1  LIG1       -0.5495
      7 O          -5.7496   -3.4836    3.2929 O.co2   1  LIG1       -0.5495
      8 N          -1.2646    1.4362   -0.6472 N.ar    1  LIG1       -0.2556
      9 C           1.1207   -0.7190    1.1589 C.3     1  LIG1        0.0217
     10 C          -0.3612   -0.4976    0.7522 C.3     1  LIG1        0.0357
     11 C           1.7953    0.6734    1.2612 C.3     1  LIG1        0.0199
     12 C           0.8971    1.5338    0.4162 C.ar    1  LIG1       -0.0174
     13 C          -0.2876    0.8856    0.1051 C.ar    1  LIG1        0.0534
     14 C          -0.9176   -1.5624   -0.2045 C.ar    1  LIG1       -0.0344
     15 C           3.2607    0.6341    0.8333 C.ar    1  LIG1       -0.0356
     16 C           1.2843   -1.3173    2.5499 C.2     1  LIG1        0.0466
     17 C           1.0868    2.8403   -0.0044 C.ar    1  LIG1       -0.0546
     18 C          -2.1226   -2.2758    0.0358 C.ar    1  LIG1       -0.0395
     19 C          -0.2272   -1.7949   -1.4174 C.ar    1  LIG1       -0.0542
     20 C          -1.0571    2.6993   -1.0870 C.ar    1  LIG1        0.0416
     21 C           3.6660    0.7622   -0.5075 C.ar    1  LIG1       -0.0124
     22 C           0.0918    3.4331   -0.7763 C.ar    1  LIG1       -0.0401
     23 C           4.2440    0.4092    1.8284 C.ar    1  LIG1       -0.0543
     24 C          -2.9593   -2.0478    1.3058 C.3     1  LIG1       -0.0196
     25 C          -2.5856   -3.1584   -0.9702 C.ar    1  LIG1       -0.0165
     26 C          -2.1546    3.3106   -1.9173 C.3     1  LIG1       -0.0104
     27 C          -4.0731   -3.0707    1.6440 C.3     1  LIG1       -0.0003
     28 C           5.0154    0.7110   -0.7906 C.ar    1  LIG1        0.1665
     29 C          -0.7013   -2.6884   -2.3764 C.ar    1  LIG1       -0.0197
     30 C           5.6045    0.3516    1.5111 C.ar    1  LIG1       -0.0159
     31 C          -1.8901   -3.3693   -2.1637 C.ar    1  LIG1        0.1204
     32 C           5.9583    0.5150    0.1915 C.ar    1  LIG1        0.1662
     33 C          -3.1272    4.1653   -1.1000 C.3     1  LIG1       -0.0479
     34 C          -3.4743   -4.4097    2.0867 C.3     1  LIG1       -0.0570
     35 C          -3.9718    3.3420   -0.1239 C.3     1  LIG1       -0.0556
     36 C          -5.1053   -2.5755    2.6861 C.2     1  LIG1        0.0449
     37 C           6.9671    0.6728   -1.7072 C.3     1  LIG1        0.2332
     38 C          -4.9904    4.2102    0.5974 C.3     1  LIG1       -0.0653
     39 C          -3.5326   -4.8442   -3.0294 C.3     1  LIG1        0.0788
     40 H           1.6491   -1.3542    0.4367 H       1  LIG1        0.0379
     41 H          -0.9981   -0.3920    1.6344 H       1  LIG1        0.0419
     42 H           1.7492    1.1015    2.2721 H       1  LIG1        0.0404
     43 H           1.9870    3.3836    0.2609 H       1  LIG1        0.0622
     44 H           0.6886   -1.2491   -1.6328 H       1  LIG1        0.0622
     45 H           2.9459    0.8918   -1.3080 H       1  LIG1        0.0658
     46 H           0.2093    4.4517   -1.1270 H       1  LIG1        0.0636
     47 H           3.9300    0.2447    2.8607 H       1  LIG1        0.0622
     48 H          -3.3948   -1.0464    1.2029 H       1  LIG1        0.0319
     49 H          -2.2788   -2.0202    2.1663 H       1  LIG1        0.0319
     50 H          -3.5154   -3.6858   -0.8068 H       1  LIG1        0.0657
     51 H          -2.7031    2.5149   -2.4370 H       1  LIG1        0.0328
     52 H          -1.7015    3.9279   -2.7033 H       1  LIG1        0.0328
     53 H          -4.6978   -3.2409    0.7595 H       1  LIG1        0.0361
     54 H          -0.1466   -2.8336   -3.2969 H       1  LIG1        0.0654
     55 H           6.3450    0.1647    2.2786 H       1  LIG1        0.0655
     56 H          -3.7962    4.6833   -1.7985 H       1  LIG1        0.0269
     57 H          -2.5795    4.9413   -0.5509 H       1  LIG1        0.0269
     58 H          -2.9788   -4.3169    3.0595 H       1  LIG1        0.0236
     59 H          -2.7388   -4.7866    1.3698 H       1  LIG1        0.0236
     60 H          -4.2484   -5.1796    2.1801 H       1  LIG1        0.0236
     61 H          -3.3309    2.8614    0.6234 H       1  LIG1        0.0263
     62 H          -4.4965    2.5458   -0.6646 H       1  LIG1        0.0263
     63 H           7.5121    1.5593   -2.0516 H       1  LIG1        0.1166
     64 H           7.3484   -0.2014   -2.2477 H       1  LIG1        0.1166
     65 H          -4.4954    5.0007    1.1705 H       1  LIG1        0.0230
     66 H          -5.5791    3.6038    1.2927 H       1  LIG1        0.0230
     67 H          -5.6796    4.6787   -0.1124 H       1  LIG1        0.0230
     68 H          -3.7174   -5.4352   -3.9318 H       1  LIG1        0.0660
     69 H          -4.3459   -4.1156   -2.9413 H       1  LIG1        0.0660
     70 H          -3.5212   -5.5343   -2.1793 H       1  LIG1        0.0660
@<TRIPOS>BOND
     1     1    16   ar
     2     2    16   ar
     3     3    28    1
     4     3    37    1
     5     4    32    1
     6     4    37    1
     7     5    31    1
     8     5    39    1
     9     6    36   ar
    10     7    36   ar
    11     8    13   ar
    12     8    20   ar
    13     9    10    1
    14     9    11    1
    15     9    16    1
    16    10    13    1
    17    10    14    1
    18    11    12    1
    19    11    15    1
    20    12    13   ar
    21    12    17   ar
    22    14    18   ar
    23    14    19   ar
    24    15    21   ar
    25    15    23   ar
    26    17    22   ar
    27    18    24    1
    28    18    25   ar
    29    19    29   ar
    30    20    22   ar
    31    20    26    1
    32    21    28   ar
    33    23    30   ar
    34    24    27    1
    35    25    31   ar
    36    26    33    1
    37    27    34    1
    38    27    36    1
    39    28    32   ar
    40    29    31   ar
    41    30    32   ar
    42    33    35    1
    43    35    38    1
    44     9    40    1
    45    10    41    1
    46    11    42    1
    47    17    43    1
    48    19    44    1
    49    21    45    1
    50    22    46    1
    51    23    47    1
    52    24    48    1
    53    24    49    1
    54    25    50    1
    55    26    51    1
    56    26    52    1
    57    27    53    1
    58    29    54    1
    59    30    55    1
    60    33    56    1
    61    33    57    1
    62    34    58    1
    63    34    59    1
    64    34    60    1
    65    35    61    1
    66    35    62    1
    67    37    63    1
    68    37    64    1
    69    38    65    1
    70    38    66    1
    71    38    67    1
    72    39    68    1
    73    39    69    1
    74    39    70    1
@<TRIPOS>MOLECULE
3047752
 70 74 0 0 0
SMALL
GASTEIGER

@<TRIPOS>ATOM
      1 O           2.0414   -2.3665    2.6653 O.co2   1  LIG1       -0.5495
      2 O           0.6852   -0.7444    3.5162 O.co2   1  LIG1       -0.5495
      3 O           6.5451    2.0010    1.7832 O.3     1  LIG1       -0.4526
      4 O           7.2782    0.8347   -0.1995 O.3     1  LIG1       -0.4526
      5 O          -2.3823   -4.3648   -3.0224 O.3     1  LIG1       -0.4951
      6 O          -5.6387   -1.5490    2.3011 O.co2   1  LIG1       -0.5495
      7 O          -5.3130   -3.3422    3.6607 O.co2   1  LIG1       -0.5495
      8 N          -1.2525    1.3886   -0.6266 N.ar    1  LIG1       -0.2556
      9 C           1.1065   -0.8020    1.1832 C.3     1  LIG1        0.0217
     10 C          -0.3727   -0.5564    0.7701 C.3     1  LIG1        0.0357
     11 C           1.8186    0.5768    1.2450 C.3     1  LIG1        0.0199
     12 C           0.9441    1.4298    0.3680 C.ar    1  LIG1       -0.0174
     13 C          -0.2745    0.8210    0.1124 C.ar    1  LIG1        0.0534
     14 C          -0.9221   -1.6176   -0.1990 C.ar    1  LIG1       -0.0344
     15 C           3.2831    0.5839    0.8135 C.ar    1  LIG1       -0.0356
     16 C           1.2649   -1.3699    2.5868 C.2     1  LIG1        0.0466
     17 C           1.1798    2.7057   -0.1177 C.ar    1  LIG1       -0.0546
     18 C          -2.1078   -2.3611    0.0371 C.ar    1  LIG1       -0.0395
     19 C          -0.2322   -1.8203   -1.4189 C.ar    1  LIG1       -0.0542
     20 C          -1.0103    2.6283   -1.1119 C.ar    1  LIG1        0.0416
     21 C           4.2151    1.3083    1.5812 C.ar    1  LIG1       -0.0124
     22 C           0.1832    3.3165   -0.8739 C.ar    1  LIG1       -0.0401
     23 C           3.7282   -0.0774   -0.3564 C.ar    1  LIG1       -0.0543
     24 C          -2.9515   -2.1558    1.3031 C.3     1  LIG1       -0.0196
     25 C          -2.5374   -3.2551   -0.9714 C.ar    1  LIG1       -0.0165
     26 C          -2.1127    3.2645   -1.9173 C.3     1  LIG1       -0.0104
     27 C          -4.0568   -3.1918    1.6231 C.3     1  LIG1       -0.0003
     28 C           5.5294    1.3386    1.1651 C.ar    1  LIG1        0.1665
     29 C          -0.6717   -2.7263   -2.3837 C.ar    1  LIG1       -0.0197
     30 C           5.0710   -0.0401   -0.7484 C.ar    1  LIG1       -0.0159
     31 C          -1.8296   -3.4533   -2.1614 C.ar    1  LIG1        0.1204
     32 C           5.9463    0.6788    0.0334 C.ar    1  LIG1        0.1662
     33 C          -3.0505    4.1392   -1.0803 C.3     1  LIG1       -0.0479
     34 C          -3.4595   -4.5257    2.0742 C.3     1  LIG1       -0.0570
     35 C          -3.9176    3.3313   -0.1108 C.3     1  LIG1       -0.0556
     36 C          -5.0716   -2.6280    2.6447 C.2     1  LIG1        0.0449
     37 C           7.6524    1.6372    0.9381 C.3     1  LIG1        0.2332
     38 C          -4.9246    4.2178    0.6053 C.3     1  LIG1       -0.0653
     39 C          -1.6138   -4.6979   -4.1683 C.3     1  LIG1        0.0788
     40 H           1.6009   -1.4892    0.4885 H       1  LIG1        0.0379
     41 H          -1.0191   -0.4450    1.6448 H       1  LIG1        0.0419
     42 H           1.7574    1.0140    2.2510 H       1  LIG1        0.0404
     43 H           2.1113    3.2187    0.0932 H       1  LIG1        0.0622
     44 H           0.6605   -1.2380   -1.6337 H       1  LIG1        0.0622
     45 H           3.9116    1.8262    2.4854 H       1  LIG1        0.0658
     46 H           0.3333    4.3160   -1.2652 H       1  LIG1        0.0636
     47 H           3.0223   -0.6364   -0.9658 H       1  LIG1        0.0622
     48 H          -3.3936   -1.1554    1.2170 H       1  LIG1        0.0319
     49 H          -2.2728   -2.1325    2.1655 H       1  LIG1        0.0319
     50 H          -3.4521   -3.8257   -0.8456 H       1  LIG1        0.0657
     51 H          -2.6871    2.4809   -2.4270 H       1  LIG1        0.0328
     52 H          -1.6639    3.8743   -2.7116 H       1  LIG1        0.0328
     53 H          -4.6736   -3.3740    0.7350 H       1  LIG1        0.0361
     54 H          -0.0941   -2.8190   -3.2941 H       1  LIG1        0.0654
     55 H           5.4070   -0.5650   -1.6339 H       1  LIG1        0.0655
     56 H          -3.7064    4.6884   -1.7674 H       1  LIG1        0.0269
     57 H          -2.4748    4.8891   -0.5237 H       1  LIG1        0.0269
     58 H          -2.8798   -4.4101    2.9965 H       1  LIG1        0.0236
     59 H          -2.7977   -4.9524    1.3149 H       1  LIG1        0.0236
     60 H          -4.2474   -5.2627    2.2665 H       1  LIG1        0.0236
     61 H          -3.2905    2.8367    0.6389 H       1  LIG1        0.0263
     62 H          -4.4553    2.5469   -0.6559 H       1  LIG1        0.0263
     63 H           8.3832    1.0803    1.5363 H       1  LIG1        0.1166
     64 H           8.1284    2.5547    0.5733 H       1  LIG1        0.1166
     65 H          -4.4192    4.9980    1.1833 H       1  LIG1        0.0230
     66 H          -5.5302    3.6216    1.2950 H       1  LIG1        0.0230
     67 H          -5.5998    4.7005   -0.1084 H       1  LIG1        0.0230
     68 H          -2.1456   -5.4862   -4.7099 H       1  LIG1        0.0660
     69 H          -0.6311   -5.0931   -3.8895 H       1  LIG1        0.0660
     70 H          -1.5189   -3.8399   -4.8420 H       1  LIG1        0.0660
@<TRIPOS>BOND
     1     1    16   ar
     2     2    16   ar
     3     3    28    1
     4     3    37    1
     5     4    32    1
     6     4    37    1
     7     5    31    1
     8     5    39    1
     9     6    36   ar
    10     7    36   ar
    11     8    13   ar
    12     8    20   ar
    13     9    10    1
    14     9    11    1
    15     9    16    1
    16    10    13    1
    17    10    14    1
    18    11    12    1
    19    11    15    1
    20    12    13   ar
    21    12    17   ar
    22    14    18   ar
    23    14    19   ar
    24    15    21   ar
    25    15    23   ar
    26    17    22   ar
    27    18    24    1
    28    18    25   ar
    29    19    29   ar
    30    20    22   ar
    31    20    26    1
    32    21    28   ar
    33    23    30   ar
    34    24    27    1
    35    25    31   ar
    36    26    33    1
    37    27    34    1
    38    27    36    1
    39    28    32   ar
    40    29    31   ar
    41    30    32   ar
    42    33    35    1
    43    35    38    1
    44     9    40    1
    45    10    41    1
    46    11    42    1
    47    17    43    1
    48    19    44    1
    49    21    45    1
    50    22    46    1
    51    23    47    1
    52    24    48    1
    53    24    49    1
    54    25    50    1
    55    26    51    1
    56    26    52    1
    57    27    53    1
    58    29    54    1
    59    30    55    1
    60    33    56    1
    61    33    57    1
    62    34    58    1
    63    34    59    1
    64    34    60    1
    65    35    61    1
    66    35    62    1
    67    37    63    1
    68    37    64    1
    69    38    65    1
    70    38    66    1
    71    38    67    1
    72    39    68    1
    73    39    69    1
    74    39    70    1
@<TRIPOS>MOLECULE
3047752
 70 74 0 0 0
SMALL
GASTEIGER

@<TRIPOS>ATOM
      1 O           2.1149   -2.1120    2.7655 O.co2   1  LIG1       -0.5495
      2 O           0.4284   -0.7508    3.4564 O.co2   1  LIG1       -0.5495
      3 O           6.6265    0.2495    2.2657 O.3     1  LIG1       -0.4526
      4 O           7.2640    0.4071   -0.0563 O.3     1  LIG1       -0.4526
      5 O          -1.9195   -4.6396   -2.9246 O.3     1  LIG1       -0.4951
      6 O          -5.7501   -1.6441    0.4342 O.co2   1  LIG1       -0.5495
      7 O          -5.7882   -3.9127    0.2044 O.co2   1  LIG1       -0.5495
      8 N          -1.2067    1.4540   -0.7335 N.ar    1  LIG1       -0.2556
      9 C           1.0929   -0.7069    1.1762 C.3     1  LIG1        0.0217
     10 C          -0.3648   -0.4778    0.6940 C.3     1  LIG1        0.0357
     11 C           1.7801    0.6795    1.2811 C.3     1  LIG1        0.0199
     12 C           0.9062    1.5472    0.4176 C.ar    1  LIG1       -0.0174
     13 C          -0.2572    0.8955    0.0418 C.ar    1  LIG1        0.0534
     14 C          -0.8783   -1.5757   -0.2457 C.ar    1  LIG1       -0.0344
     15 C           3.2455    0.6313    0.8529 C.ar    1  LIG1       -0.0356
     16 C           1.1965   -1.2597    2.5927 C.2     1  LIG1        0.0466
     17 C           1.1059    2.8629    0.0251 C.ar    1  LIG1       -0.0546
     18 C          -2.0441   -2.3417    0.0291 C.ar    1  LIG1       -0.0395
     19 C          -0.1654   -1.8396   -1.4358 C.ar    1  LIG1       -0.0542
     20 C          -0.9950    2.7292   -1.1382 C.ar    1  LIG1        0.0416
     21 C           4.2332    0.4658    1.8400 C.ar    1  LIG1       -0.0124
     22 C           0.1358    3.4631   -0.7726 C.ar    1  LIG1       -0.0401
     23 C           3.6370    0.6979   -0.5084 C.ar    1  LIG1       -0.0543
     24 C          -2.9138   -2.0426    1.2498 C.3     1  LIG1       -0.0196
     25 C          -2.4008   -3.3727   -0.8671 C.ar    1  LIG1       -0.0165
     26 C          -2.0835    3.3539   -1.9709 C.3     1  LIG1       -0.0104
     27 C          -4.1054   -2.9643    1.5672 C.3     1  LIG1       -0.0003
     28 C           5.5537    0.4047    1.4439 C.ar    1  LIG1        0.1665
     29 C          -0.5511   -2.8566   -2.3084 C.ar    1  LIG1       -0.0197
     30 C           4.9840    0.6428   -0.8804 C.ar    1  LIG1       -0.0159
     31 C          -1.6556   -3.6461   -2.0164 C.ar    1  LIG1        0.1204
     32 C           5.9167    0.4958    0.1202 C.ar    1  LIG1        0.1662
     33 C          -3.0752    4.1751   -1.1413 C.3     1  LIG1       -0.0479
     34 C          -4.6639   -2.6553    2.9602 C.3     1  LIG1       -0.0570
     35 C          -3.8957    3.3217   -0.1699 C.3     1  LIG1       -0.0556
     36 C          -5.3226   -2.8134    0.6361 C.2     1  LIG1        0.0449
     37 C           7.6891    0.1623    1.3004 C.3     1  LIG1        0.2332
     38 C          -4.9188    4.1600    0.5795 C.3     1  LIG1       -0.0653
     39 C          -2.8809   -5.6070   -2.5132 C.3     1  LIG1        0.0788
     40 H           1.6442   -1.3696    0.4964 H       1  LIG1        0.0379
     41 H          -1.0421   -0.3492    1.5418 H       1  LIG1        0.0419
     42 H           1.7283    1.1056    2.2929 H       1  LIG1        0.0404
     43 H           1.9909    3.4049    0.3351 H       1  LIG1        0.0622
     44 H           0.7071   -1.2426   -1.6876 H       1  LIG1        0.0622
     45 H           3.9629    0.3501    2.8862 H       1  LIG1        0.0658
     46 H           0.2558    4.4909   -1.0952 H       1  LIG1        0.0636
     47 H           2.8815    0.7823   -1.2871 H       1  LIG1        0.0622
     48 H          -3.2703   -1.0088    1.1556 H       1  LIG1        0.0319
     49 H          -2.2448   -2.0857    2.1201 H       1  LIG1        0.0319
     50 H          -3.2900   -3.9571   -0.6605 H       1  LIG1        0.0657
     51 H          -2.6172    2.5685   -2.5203 H       1  LIG1        0.0328
     52 H          -1.6236    3.9977   -2.7313 H       1  LIG1        0.0328
     53 H          -3.7721   -4.0100    1.5699 H       1  LIG1        0.0361
     54 H           0.0208   -3.0374   -3.2119 H       1  LIG1        0.0654
     55 H           5.2781    0.6980   -1.9209 H       1  LIG1        0.0655
     56 H          -3.7584    4.6852   -1.8317 H       1  LIG1        0.0269
     57 H          -2.5436    4.9574   -0.5855 H       1  LIG1        0.0269
     58 H          -4.9789   -1.6091    3.0490 H       1  LIG1        0.0236
     59 H          -3.9077   -2.8429    3.7300 H       1  LIG1        0.0236
     60 H          -5.5319   -3.2848    3.1879 H       1  LIG1        0.0236
     61 H          -3.2395    2.8400    0.5632 H       1  LIG1        0.0263
     62 H          -4.4126    2.5256   -0.7180 H       1  LIG1        0.0263
     63 H           8.1328   -0.8392    1.3526 H       1  LIG1        0.1166
     64 H           8.4587    0.8976    1.5614 H       1  LIG1        0.1166
     65 H          -4.4289    4.9487    1.1593 H       1  LIG1        0.0230
     66 H          -5.4865    3.5316    1.2729 H       1  LIG1        0.0230
     67 H          -5.6256    4.6283   -0.1124 H       1  LIG1        0.0230
     68 H          -2.9091   -6.3903   -3.2771 H       1  LIG1        0.0660
     69 H          -3.8831   -5.1713   -2.4504 H       1  LIG1        0.0660
     70 H          -2.5893   -6.0804   -1.5689 H       1  LIG1        0.0660
@<TRIPOS>BOND
     1     1    16   ar
     2     2    16   ar
     3     3    28    1
     4     3    37    1
     5     4    32    1
     6     4    37    1
     7     5    31    1
     8     5    39    1
     9     6    36   ar
    10     7    36   ar
    11     8    13   ar
    12     8    20   ar
    13     9    10    1
    14     9    11    1
    15     9    16    1
    16    10    13    1
    17    10    14    1
    18    11    12    1
    19    11    15    1
    20    12    13   ar
    21    12    17   ar
    22    14    18   ar
    23    14    19   ar
    24    15    21   ar
    25    15    23   ar
    26    17    22   ar
    27    18    24    1
    28    18    25   ar
    29    19    29   ar
    30    20    22   ar
    31    20    26    1
    32    21    28   ar
    33    23    30   ar
    34    24    27    1
    35    25    31   ar
    36    26    33    1
    37    27    34    1
    38    27    36    1
    39    28    32   ar
    40    29    31   ar
    41    30    32   ar
    42    33    35    1
    43    35    38    1
    44     9    40    1
    45    10    41    1
    46    11    42    1
    47    17    43    1
    48    19    44    1
    49    21    45    1
    50    22    46    1
    51    23    47    1
    52    24    48    1
    53    24    49    1
    54    25    50    1
    55    26    51    1
    56    26    52    1
    57    27    53    1
    58    29    54    1
    59    30    55    1
    60    33    56    1
    61    33    57    1
    62    34    58    1
    63    34    59    1
    64    34    60    1
    65    35    61    1
    66    35    62    1
    67    37    63    1
    68    37    64    1
    69    38    65    1
    70    38    66    1
    71    38    67    1
    72    39    68    1
    73    39    69    1
    74    39    70    1
@<TRIPOS>MOLECULE
3047752
 70 74 0 0 0
SMALL
GASTEIGER

@<TRIPOS>ATOM
      1 O           1.6140   -2.8141    2.1043 O.co2   1  LIG1       -0.5495
      2 O           1.4316   -0.9566    3.4048 O.co2   1  LIG1       -0.5495
      3 O           5.6273    0.8607   -2.0236 O.3     1  LIG1       -0.4526
      4 O           7.2742    0.5750   -0.2814 O.3     1  LIG1       -0.4526
      5 O          -2.1664   -4.4523   -3.0284 O.3     1  LIG1       -0.4951
      6 O          -4.6860   -1.4830    3.3968 O.co2   1  LIG1       -0.5495
      7 O          -6.1638   -3.0860    2.7405 O.co2   1  LIG1       -0.5495
      8 N          -1.2687    1.3925   -0.6207 N.ar    1  LIG1       -0.2556
      9 C           1.2162   -0.7496    1.0463 C.3     1  LIG1        0.0217
     10 C          -0.2906   -0.5521    0.7224 C.3     1  LIG1        0.0357
     11 C           1.8308    0.6582    1.2310 C.3     1  LIG1        0.0199
     12 C           0.9107    1.5158    0.4074 C.ar    1  LIG1       -0.0174
     13 C          -0.2675    0.8484    0.1049 C.ar    1  LIG1        0.0534
     14 C          -0.8781   -1.6056   -0.2241 C.ar    1  LIG1       -0.0344
     15 C           3.3006    0.6778    0.8246 C.ar    1  LIG1       -0.0356
     16 C           1.4064   -1.5844    2.3068 C.2     1  LIG1        0.0466
     17 C           1.0719    2.8301    0.0022 C.ar    1  LIG1       -0.0546
     18 C          -2.0545   -2.3463    0.0691 C.ar    1  LIG1       -0.0395
     19 C          -0.2333   -1.8234   -1.4646 C.ar    1  LIG1       -0.0542
     20 C          -1.0863    2.6635   -1.0510 C.ar    1  LIG1        0.0416
     21 C           3.7127    0.7928   -0.5154 C.ar    1  LIG1       -0.0124
     22 C           0.0558    3.4131   -0.7492 C.ar    1  LIG1       -0.0401
     23 C           4.2788    0.4935    1.8321 C.ar    1  LIG1       -0.0543
     24 C          -2.8622   -2.0879    1.3499 C.3     1  LIG1       -0.0196
     25 C          -2.4943   -3.2981   -0.8807 C.ar    1  LIG1       -0.0165
     26 C          -2.1955    3.2624   -1.8760 C.3     1  LIG1       -0.0104
     27 C          -4.0571   -3.0147    1.6633 C.3     1  LIG1       -0.0003
     28 C           5.0638    0.7560   -0.7888 C.ar    1  LIG1        0.1665
     29 C          -0.6930   -2.7698   -2.3777 C.ar    1  LIG1       -0.0197
     30 C           5.6423    0.4553    1.5251 C.ar    1  LIG1       -0.0159
     31 C          -1.8099   -3.5315   -2.0771 C.ar    1  LIG1        0.1204
     32 C           6.0024    0.5940    0.2039 C.ar    1  LIG1        0.1662
     33 C          -3.1540    4.1387   -1.0656 C.3     1  LIG1       -0.0479
     34 C          -3.5937   -4.3717    2.1984 C.3     1  LIG1       -0.0570
     35 C          -4.0042    3.3367   -0.0772 C.3     1  LIG1       -0.0556
     36 C          -5.0516   -2.4733    2.7086 C.2     1  LIG1        0.0449
     37 C           7.0198    0.6988   -1.6943 C.3     1  LIG1        0.2332
     38 C          -5.0153    4.2242    0.6312 C.3     1  LIG1       -0.0653
     39 C          -2.9322   -5.5493   -2.5427 C.3     1  LIG1        0.0788
     40 H           1.7338   -1.2696    0.2292 H       1  LIG1        0.0379
     41 H          -0.8661   -0.4805    1.6507 H       1  LIG1        0.0419
     42 H           1.7442    1.0403    2.2562 H       1  LIG1        0.0404
     43 H           1.9666    3.3854    0.2600 H       1  LIG1        0.0622
     44 H           0.6469   -1.2411   -1.7277 H       1  LIG1        0.0622
     45 H           2.9942    0.8884   -1.3221 H       1  LIG1        0.0658
     46 H           0.1526    4.4361   -1.0940 H       1  LIG1        0.0636
     47 H           3.9568    0.3434    2.8644 H       1  LIG1        0.0622
     48 H          -3.2316   -1.0566    1.2766 H       1  LIG1        0.0319
     49 H          -2.1714   -2.1307    2.2017 H       1  LIG1        0.0319
     50 H          -3.3961   -3.8610   -0.6814 H       1  LIG1        0.0657
     51 H          -2.7536    2.4589   -2.3728 H       1  LIG1        0.0328
     52 H          -1.7500    3.8617   -2.6802 H       1  LIG1        0.0328
     53 H          -4.6628   -3.1585    0.7612 H       1  LIG1        0.0361
     54 H          -0.1639   -2.9172   -3.3130 H       1  LIG1        0.0654
     55 H           6.3811    0.2973    2.3008 H       1  LIG1        0.0655
     56 H          -3.8202    4.6546   -1.7684 H       1  LIG1        0.0269
     57 H          -2.5967    4.9159   -0.5287 H       1  LIG1        0.0269
     58 H          -3.0784   -4.2637    3.1600 H       1  LIG1        0.0236
     59 H          -2.9061   -4.8670    1.5059 H       1  LIG1        0.0236
     60 H          -4.4395   -5.0509    2.3545 H       1  LIG1        0.0236
     61 H          -3.3657    2.8603    0.6750 H       1  LIG1        0.0263
     62 H          -4.5366    2.5377   -0.6065 H       1  LIG1        0.0263
     63 H           7.5697    1.5684   -2.0715 H       1  LIG1        0.1166
     64 H           7.3980   -0.1978   -2.1992 H       1  LIG1        0.1166
     65 H          -4.5138    5.0178    1.1939 H       1  LIG1        0.0230
     66 H          -5.6111    3.6330    1.3335 H       1  LIG1        0.0230
     67 H          -5.6990    4.6898   -0.0859 H       1  LIG1        0.0230
     68 H          -2.9452   -6.3165   -3.3235 H       1  LIG1        0.0660
     69 H          -3.9687   -5.2509   -2.3555 H       1  LIG1        0.0660
     70 H          -2.4805   -5.9962   -1.6488 H       1  LIG1        0.0660
@<TRIPOS>BOND
     1     1    16   ar
     2     2    16   ar
     3     3    28    1
     4     3    37    1
     5     4    32    1
     6     4    37    1
     7     5    31    1
     8     5    39    1
     9     6    36   ar
    10     7    36   ar
    11     8    13   ar
    12     8    20   ar
    13     9    10    1
    14     9    11    1
    15     9    16    1
    16    10    13    1
    17    10    14    1
    18    11    12    1
    19    11    15    1
    20    12    13   ar
    21    12    17   ar
    22    14    18   ar
    23    14    19   ar
    24    15    21   ar
    25    15    23   ar
    26    17    22   ar
    27    18    24    1
    28    18    25   ar
    29    19    29   ar
    30    20    22   ar
    31    20    26    1
    32    21    28   ar
    33    23    30   ar
    34    24    27    1
    35    25    31   ar
    36    26    33    1
    37    27    34    1
    38    27    36    1
    39    28    32   ar
    40    29    31   ar
    41    30    32   ar
    42    33    35    1
    43    35    38    1
    44     9    40    1
    45    10    41    1
    46    11    42    1
    47    17    43    1
    48    19    44    1
    49    21    45    1
    50    22    46    1
    51    23    47    1
    52    24    48    1
    53    24    49    1
    54    25    50    1
    55    26    51    1
    56    26    52    1
    57    27    53    1
    58    29    54    1
    59    30    55    1
    60    33    56    1
    61    33    57    1
    62    34    58    1
    63    34    59    1
    64    34    60    1
    65    35    61    1
    66    35    62    1
    67    37    63    1
    68    37    64    1
    69    38    65    1
    70    38    66    1
    71    38    67    1
    72    39    68    1
    73    39    69    1
    74    39    70    1
@<TRIPOS>MOLECULE
3047752
 70 74 0 0 0
SMALL
GASTEIGER

@<TRIPOS>ATOM
      1 O           0.8140   -0.7291    3.4488 O.co2   1  LIG1       -0.5495
      2 O           1.8059   -2.4783    2.3774 O.co2   1  LIG1       -0.5495
      3 O           6.6559    1.1964    2.2832 O.3     1  LIG1       -0.4526
      4 O           7.3161    0.6673    0.0219 O.3     1  LIG1       -0.4526
      5 O          -2.5664   -4.6009   -2.6458 O.3     1  LIG1       -0.4951
      6 O          -5.3986    1.1277    1.0820 O.co2   1  LIG1       -0.5495
      7 O          -6.7450   -0.2456   -0.1386 O.co2   1  LIG1       -0.5495
      8 N          -1.0864    1.4821   -0.9076 N.ar    1  LIG1       -0.2556
      9 C           1.1525   -0.6195    1.1012 C.3     1  LIG1        0.0217
     10 C          -0.3253   -0.4252    0.6402 C.3     1  LIG1        0.0357
     11 C           1.8019    0.7720    1.2638 C.3     1  LIG1        0.0199
     12 C           0.9591    1.6042    0.3413 C.ar    1  LIG1       -0.0174
     13 C          -0.1785    0.9270   -0.0781 C.ar    1  LIG1        0.0534
     14 C          -0.9505   -1.5610   -0.1960 C.ar    1  LIG1       -0.0344
     15 C           3.2821    0.7603    0.8772 C.ar    1  LIG1       -0.0356
     16 C           1.2458   -1.3453    2.4348 C.2     1  LIG1        0.0466
     17 C           1.1748    2.9131   -0.0607 C.ar    1  LIG1       -0.0546
     18 C          -2.3091   -1.5603   -0.6108 C.ar    1  LIG1       -0.0395
     19 C          -0.1792   -2.6885   -0.5577 C.ar    1  LIG1       -0.0542
     20 C          -0.8949    2.7738   -1.2751 C.ar    1  LIG1        0.0416
     21 C           4.2598    1.0179    1.8518 C.ar    1  LIG1       -0.0124
     22 C           0.2289    3.5083   -0.8865 C.ar    1  LIG1       -0.0401
     23 C           3.6911    0.4569   -0.4488 C.ar    1  LIG1       -0.0543
     24 C          -3.3324   -0.4990   -0.2110 C.3     1  LIG1       -0.0196
     25 C          -2.7723   -2.5909   -1.4676 C.ar    1  LIG1       -0.0165
     26 C          -1.9362    3.4178   -2.1630 C.3     1  LIG1       -0.0104
     27 C          -4.6015   -1.0451    0.4658 C.3     1  LIG1       -0.0003
     28 C           5.5857    0.9704    1.4718 C.ar    1  LIG1        0.1665
     29 C          -0.6741   -3.7221   -1.3621 C.ar    1  LIG1       -0.0197
     30 C           5.0410    0.4102   -0.8035 C.ar    1  LIG1       -0.0159
     31 C          -1.9737   -3.6708   -1.8351 C.ar    1  LIG1        0.1204
     32 C           5.9644    0.6724    0.1819 C.ar    1  LIG1        0.1662
     33 C          -3.3655    3.0016   -1.8103 C.3     1  LIG1       -0.0479
     34 C          -4.3406   -1.4985    1.8963 C.3     1  LIG1       -0.0570
     35 C          -4.4074    3.7573   -2.6323 C.3     1  LIG1       -0.0556
     36 C          -5.6747    0.0577    0.4704 C.2     1  LIG1        0.0449
     37 C           7.7407    0.9491    1.3700 C.3     1  LIG1        0.2332
     38 C          -5.8143    3.2877   -2.2924 C.3     1  LIG1       -0.0653
     39 C          -1.9206   -5.8647   -2.7109 C.3     1  LIG1        0.0788
     40 H           1.7276   -1.1714    0.3517 H       1  LIG1        0.0379
     41 H          -0.9630   -0.2750    1.5216 H       1  LIG1        0.0419
     42 H           1.6868    1.1875    2.2727 H       1  LIG1        0.0404
     43 H           2.0468    3.4614    0.2772 H       1  LIG1        0.0622
     44 H           0.8379   -2.8184   -0.1985 H       1  LIG1        0.0622
     45 H           3.9831    1.2250    2.8806 H       1  LIG1        0.0658
     46 H           0.3566    4.5364   -1.2044 H       1  LIG1        0.0636
     47 H           2.9390    0.2362   -1.2060 H       1  LIG1        0.0622
     48 H          -3.6157    0.0165   -1.1345 H       1  LIG1        0.0319
     49 H          -2.8870    0.2552    0.4425 H       1  LIG1        0.0319
     50 H          -3.7958   -2.5542   -1.8369 H       1  LIG1        0.0657
     51 H          -1.7121    3.1545   -3.2033 H       1  LIG1        0.0328
     52 H          -1.8584    4.5092   -2.0799 H       1  LIG1        0.0328
     53 H          -5.0090   -1.8963   -0.0924 H       1  LIG1        0.0361
     54 H          -0.0047   -4.5413   -1.5935 H       1  LIG1        0.0654
     55 H           5.3444    0.1619   -1.8123 H       1  LIG1        0.0655
     56 H          -3.5509    3.1631   -0.7408 H       1  LIG1        0.0269
     57 H          -3.4850    1.9324   -2.0025 H       1  LIG1        0.0269
     58 H          -3.8629   -0.7132    2.4913 H       1  LIG1        0.0236
     59 H          -3.6869   -2.3769    1.9103 H       1  LIG1        0.0236
     60 H          -5.2770   -1.7707    2.3951 H       1  LIG1        0.0236
     61 H          -4.2238    3.5996   -3.7012 H       1  LIG1        0.0263
     62 H          -4.3282    4.8334   -2.4416 H       1  LIG1        0.0263
     63 H           8.3244    0.0972    1.7386 H       1  LIG1        0.1166
     64 H           8.3892    1.8325    1.3502 H       1  LIG1        0.1166
     65 H          -5.9276    2.2156   -2.4854 H       1  LIG1        0.0230
     66 H          -6.5511    3.8216   -2.9000 H       1  LIG1        0.0230
     67 H          -6.0448    3.4708   -1.2378 H       1  LIG1        0.0230
     68 H          -2.5724   -6.5447   -3.2680 H       1  LIG1        0.0660
     69 H          -1.7723   -6.2914   -1.7126 H       1  LIG1        0.0660
     70 H          -0.9732   -5.7955   -3.2555 H       1  LIG1        0.0660
@<TRIPOS>BOND
     1     1    16   ar
     2     2    16   ar
     3     3    28    1
     4     3    37    1
     5     4    32    1
     6     4    37    1
     7     5    31    1
     8     5    39    1
     9     6    36   ar
    10     7    36   ar
    11     8    13   ar
    12     8    20   ar
    13     9    10    1
    14     9    11    1
    15     9    16    1
    16    10    13    1
    17    10    14    1
    18    11    12    1
    19    11    15    1
    20    12    13   ar
    21    12    17   ar
    22    14    18   ar
    23    14    19   ar
    24    15    21   ar
    25    15    23   ar
    26    17    22   ar
    27    18    24    1
    28    18    25   ar
    29    19    29   ar
    30    20    22   ar
    31    20    26    1
    32    21    28   ar
    33    23    30   ar
    34    24    27    1
    35    25    31   ar
    36    26    33    1
    37    27    34    1
    38    27    36    1
    39    28    32   ar
    40    29    31   ar
    41    30    32   ar
    42    33    35    1
    43    35    38    1
    44     9    40    1
    45    10    41    1
    46    11    42    1
    47    17    43    1
    48    19    44    1
    49    21    45    1
    50    22    46    1
    51    23    47    1
    52    24    48    1
    53    24    49    1
    54    25    50    1
    55    26    51    1
    56    26    52    1
    57    27    53    1
    58    29    54    1
    59    30    55    1
    60    33    56    1
    61    33    57    1
    62    34    58    1
    63    34    59    1
    64    34    60    1
    65    35    61    1
    66    35    62    1
    67    37    63    1
    68    37    64    1
    69    38    65    1
    70    38    66    1
    71    38    67    1
    72    39    68    1
    73    39    69    1
    74    39    70    1
@<TRIPOS>MOLECULE
3047752
 70 74 0 0 0
SMALL
GASTEIGER

@<TRIPOS>ATOM
      1 O           0.7068   -0.7326    3.5099 O.co2   1  LIG1       -0.5495
      2 O           2.0690   -2.3051    2.5876 O.co2   1  LIG1       -0.5495
      3 O           5.5260    0.8306   -2.0302 O.3     1  LIG1       -0.4526
      4 O           7.1917    0.5068   -0.3125 O.3     1  LIG1       -0.4526
      5 O          -2.0737   -4.4182   -3.0272 O.3     1  LIG1       -0.4951
      6 O          -5.2593   -1.3491    2.7854 O.co2   1  LIG1       -0.5495
      7 O          -5.8628   -3.5048    3.1742 O.co2   1  LIG1       -0.5495
      8 N          -1.2943    1.4594   -0.6202 N.ar    1  LIG1       -0.2556
      9 C           1.1008   -0.6939    1.1715 C.3     1  LIG1        0.0217
     10 C          -0.3849   -0.4747    0.7741 C.3     1  LIG1        0.0357
     11 C           1.7701    0.6990    1.2824 C.3     1  LIG1        0.0199
     12 C           0.8681    1.5596    0.4415 C.ar    1  LIG1       -0.0174
     13 C          -0.3187    0.9119    0.1356 C.ar    1  LIG1        0.0534
     14 C          -0.9238   -1.5470   -0.1837 C.ar    1  LIG1       -0.0344
     15 C           3.2339    0.6631    0.8481 C.ar    1  LIG1       -0.0356
     16 C           1.2777   -1.3182    2.5491 C.2     1  LIG1        0.0466
     17 C           1.0623    2.8614    0.0098 C.ar    1  LIG1       -0.0546
     18 C          -2.0931   -2.3121    0.0745 C.ar    1  LIG1       -0.0395
     19 C          -0.2329   -1.7592   -1.4015 C.ar    1  LIG1       -0.0542
     20 C          -1.0749    2.7114   -1.0860 C.ar    1  LIG1        0.0416
     21 C           3.6301    0.7747   -0.4972 C.ar    1  LIG1       -0.0124
     22 C           0.0749    3.4455   -0.7781 C.ar    1  LIG1       -0.0401
     23 C           4.2236    0.4512    1.8394 C.ar    1  LIG1       -0.0543
     24 C          -2.9577   -2.0680    1.3225 C.3     1  LIG1       -0.0196
     25 C          -2.4894   -3.2660   -0.8927 C.ar    1  LIG1       -0.0165
     26 C          -2.1380    3.2944   -1.9808 C.3     1  LIG1       -0.0104
     27 C          -4.0638   -3.0975    1.6632 C.3     1  LIG1       -0.0003
     28 C           4.9773    0.7192   -0.7891 C.ar    1  LIG1        0.1665
     29 C          -0.6462   -2.7151   -2.3269 C.ar    1  LIG1       -0.0197
     30 C           5.5819    0.3900    1.5132 C.ar    1  LIG1       -0.0159
     31 C          -1.7627   -3.4911   -2.0652 C.ar    1  LIG1        0.1204
     32 C           5.9267    0.5355    0.1890 C.ar    1  LIG1        0.1662
     33 C          -2.3604    2.4788   -3.2606 C.3     1  LIG1       -0.0479
     34 C          -3.4552   -4.4034    2.1846 C.3     1  LIG1       -0.0570
     35 C          -1.1352    2.4569   -4.1793 C.3     1  LIG1       -0.0556
     36 C          -5.1396   -2.5988    2.6581 C.2     1  LIG1        0.0449
     37 C           6.9218    0.6611   -1.7194 C.3     1  LIG1        0.2332
     38 C          -1.4158    1.6870   -5.4606 C.3     1  LIG1       -0.0653
     39 C          -2.8887   -5.4984   -2.5856 C.3     1  LIG1        0.0788
     40 H           1.6279   -1.3167    0.4362 H       1  LIG1        0.0379
     41 H          -1.0190   -0.3800    1.6596 H       1  LIG1        0.0419
     42 H           1.7246    1.1205    2.2958 H       1  LIG1        0.0404
     43 H           1.9656    3.4029    0.2674 H       1  LIG1        0.0622
     44 H           0.6450   -1.1626   -1.6362 H       1  LIG1        0.0622
     45 H           2.9042    0.8924   -1.2942 H       1  LIG1        0.0658
     46 H           0.2072    4.4538   -1.1524 H       1  LIG1        0.0636
     47 H           3.9165    0.2983    2.8753 H       1  LIG1        0.0622
     48 H          -3.4091   -1.0780    1.1842 H       1  LIG1        0.0319
     49 H          -2.2954   -2.0065    2.1948 H       1  LIG1        0.0319
     50 H          -3.3929   -3.8368   -0.7250 H       1  LIG1        0.0657
     51 H          -1.8921    4.3300   -2.2458 H       1  LIG1        0.0328
     52 H          -3.0748    3.3338   -1.4118 H       1  LIG1        0.0328
     53 H          -4.6538   -3.3141    0.7650 H       1  LIG1        0.0361
     54 H          -0.0847   -2.8551   -3.2444 H       1  LIG1        0.0654
     55 H           6.3279    0.2120    2.2775 H       1  LIG1        0.0655
     56 H          -3.2069    2.9168   -3.8040 H       1  LIG1        0.0269
     57 H          -2.6472    1.4505   -3.0077 H       1  LIG1        0.0269
     58 H          -3.0092   -4.2612    3.1753 H       1  LIG1        0.0236
     59 H          -2.6770   -4.7871    1.5183 H       1  LIG1        0.0236
     60 H          -4.2135   -5.1895    2.2720 H       1  LIG1        0.0236
     61 H          -0.2848    1.9894   -3.6704 H       1  LIG1        0.0263
     62 H          -0.8403    3.4819   -4.4319 H       1  LIG1        0.0263
     63 H           7.4686    1.5386   -2.0836 H       1  LIG1        0.1166
     64 H           7.2942   -0.2244   -2.2476 H       1  LIG1        0.1166
     65 H          -1.6885    0.6493   -5.2426 H       1  LIG1        0.0230
     66 H          -0.5268    1.6771   -6.0991 H       1  LIG1        0.0230
     67 H          -2.2337    2.1470   -6.0242 H       1  LIG1        0.0230
     68 H          -2.8782   -6.2631   -3.3685 H       1  LIG1        0.0660
     69 H          -3.9264   -5.1767   -2.4521 H       1  LIG1        0.0660
     70 H          -2.4940   -5.9562   -1.6717 H       1  LIG1        0.0660
@<TRIPOS>BOND
     1     1    16   ar
     2     2    16   ar
     3     3    28    1
     4     3    37    1
     5     4    32    1
     6     4    37    1
     7     5    31    1
     8     5    39    1
     9     6    36   ar
    10     7    36   ar
    11     8    13   ar
    12     8    20   ar
    13     9    10    1
    14     9    11    1
    15     9    16    1
    16    10    13    1
    17    10    14    1
    18    11    12    1
    19    11    15    1
    20    12    13   ar
    21    12    17   ar
    22    14    18   ar
    23    14    19   ar
    24    15    21   ar
    25    15    23   ar
    26    17    22   ar
    27    18    24    1
    28    18    25   ar
    29    19    29   ar
    30    20    22   ar
    31    20    26    1
    32    21    28   ar
    33    23    30   ar
    34    24    27    1
    35    25    31   ar
    36    26    33    1
    37    27    34    1
    38    27    36    1
    39    28    32   ar
    40    29    31   ar
    41    30    32   ar
    42    33    35    1
    43    35    38    1
    44     9    40    1
    45    10    41    1
    46    11    42    1
    47    17    43    1
    48    19    44    1
    49    21    45    1
    50    22    46    1
    51    23    47    1
    52    24    48    1
    53    24    49    1
    54    25    50    1
    55    26    51    1
    56    26    52    1
    57    27    53    1
    58    29    54    1
    59    30    55    1
    60    33    56    1
    61    33    57    1
    62    34    58    1
    63    34    59    1
    64    34    60    1
    65    35    61    1
    66    35    62    1
    67    37    63    1
    68    37    64    1
    69    38    65    1
    70    38    66    1
    71    38    67    1
    72    39    68    1
    73    39    69    1
    74    39    70    1
@<TRIPOS>MOLECULE
3047752
 70 74 0 0 0
SMALL
GASTEIGER

@<TRIPOS>ATOM
      1 O           0.3282   -0.5092    3.5279 O.co2   1  LIG1       -0.5495
      2 O           1.9404   -2.0237    2.9841 O.co2   1  LIG1       -0.5495
      3 O           6.5442    1.9683    1.7662 O.3     1  LIG1       -0.4526
      4 O           7.2535    0.7160   -0.1724 O.3     1  LIG1       -0.4526
      5 O          -2.1962   -4.5072   -2.9148 O.3     1  LIG1       -0.4951
      6 O          -5.9249   -3.9454    0.3158 O.co2   1  LIG1       -0.5495
      7 O          -5.8704   -1.6806    0.5645 O.co2   1  LIG1       -0.5495
      8 N          -1.2073    1.4881   -0.7198 N.ar    1  LIG1       -0.2556
      9 C           1.0190   -0.7104    1.2637 C.3     1  LIG1        0.0217
     10 C          -0.4219   -0.4484    0.7358 C.3     1  LIG1        0.0357
     11 C           1.7864    0.6401    1.2617 C.3     1  LIG1        0.0199
     12 C           0.9651    1.4839    0.3251 C.ar    1  LIG1       -0.0174
     13 C          -0.2619    0.9042    0.0480 C.ar    1  LIG1        0.0534
     14 C          -0.9227   -1.5448   -0.2216 C.ar    1  LIG1       -0.0344
     15 C           3.2557    0.5758    0.8515 C.ar    1  LIG1       -0.0356
     16 C           1.0768   -1.1357    2.7263 C.2     1  LIG1        0.0466
     17 C           1.2580    2.7336   -0.1970 C.ar    1  LIG1       -0.0546
     18 C          -2.1142   -2.2874   -0.0029 C.ar    1  LIG1       -0.0395
     19 C          -0.1724   -1.8111   -1.3887 C.ar    1  LIG1       -0.0542
     20 C          -0.9112    2.7021   -1.2386 C.ar    1  LIG1        0.0416
     21 C           4.2025    1.3080    1.5931 C.ar    1  LIG1       -0.0124
     22 C           0.3051    3.3501   -1.0025 C.ar    1  LIG1       -0.0401
     23 C           3.6885   -0.1437   -0.2882 C.ar    1  LIG1       -0.0543
     24 C          -3.0049   -2.0109    1.2062 C.3     1  LIG1       -0.0196
     25 C          -2.4811   -3.2631   -0.9560 C.ar    1  LIG1       -0.0165
     26 C          -1.9754    3.3522   -2.0860 C.3     1  LIG1       -0.0104
     27 C          -4.1311   -3.0059    1.5400 C.3     1  LIG1       -0.0003
     28 C           5.5168    1.2978    1.1770 C.ar    1  LIG1        0.1665
     29 C          -0.5542   -2.7873   -2.3096 C.ar    1  LIG1       -0.0197
     30 C           5.0317   -0.1463   -0.6807 C.ar    1  LIG1       -0.0159
     31 C          -1.7125   -3.5212   -2.0960 C.ar    1  LIG1        0.1204
     32 C           5.9202    0.5877    0.0702 C.ar    1  LIG1        0.1662
     33 C          -2.6515    4.5200   -1.3616 C.3     1  LIG1       -0.0479
     34 C          -4.6060   -2.8057    2.9836 C.3     1  LIG1       -0.0570
     35 C          -3.6971    5.2355   -2.2204 C.3     1  LIG1       -0.0556
     36 C          -5.4219   -2.8513    0.7150 C.2     1  LIG1        0.0449
     37 C           7.6418    1.5656    0.9256 C.3     1  LIG1        0.2332
     38 C          -4.9301    4.3905   -2.4994 C.3     1  LIG1       -0.0653
     39 C          -1.5160   -4.7077   -4.1430 C.3     1  LIG1        0.0788
     40 H           1.5279   -1.4797    0.6721 H       1  LIG1        0.0379
     41 H          -1.1274   -0.2932    1.5557 H       1  LIG1        0.0419
     42 H           1.7281    1.1302    2.2439 H       1  LIG1        0.0404
     43 H           2.2007    3.2221    0.0218 H       1  LIG1        0.0622
     44 H           0.7259   -1.2353   -1.5933 H       1  LIG1        0.0622
     45 H           3.9087    1.8705    2.4736 H       1  LIG1        0.0658
     46 H           0.5028    4.3271   -1.4278 H       1  LIG1        0.0636
     47 H           2.9710   -0.7095   -0.8765 H       1  LIG1        0.0622
     48 H          -3.4196   -1.0025    1.0860 H       1  LIG1        0.0319
     49 H          -2.3392   -1.9930    2.0787 H       1  LIG1        0.0319
     50 H          -3.3966   -3.8379   -0.8291 H       1  LIG1        0.0657
     51 H          -2.7195    2.5943   -2.3562 H       1  LIG1        0.0328
     52 H          -1.5226    3.6948   -3.0245 H       1  LIG1        0.0328
     53 H          -3.7587   -4.0346    1.4549 H       1  LIG1        0.0361
     54 H           0.0733   -2.9399   -3.1778 H       1  LIG1        0.0654
     55 H           5.3564   -0.7084   -1.5477 H       1  LIG1        0.0655
     56 H          -1.8937    5.2580   -1.0694 H       1  LIG1        0.0269
     57 H          -3.1136    4.1681   -0.4306 H       1  LIG1        0.0269
     58 H          -4.9399   -1.7767    3.1615 H       1  LIG1        0.0236
     59 H          -3.7954   -3.0201    3.6888 H       1  LIG1        0.0236
     60 H          -5.4401   -3.4743    3.2267 H       1  LIG1        0.0236
     61 H          -3.2486    5.5543   -3.1685 H       1  LIG1        0.0263
     62 H          -4.0123    6.1461   -1.6973 H       1  LIG1        0.0263
     63 H           8.3773    1.0331    1.5388 H       1  LIG1        0.1166
     64 H           8.1152    2.4655    0.5168 H       1  LIG1        0.1166
     65 H          -4.6895    3.5163   -3.1111 H       1  LIG1        0.0230
     66 H          -5.6743    4.9811   -3.0435 H       1  LIG1        0.0230
     67 H          -5.3884    4.0456   -1.5669 H       1  LIG1        0.0230
     68 H          -2.0486   -5.4864   -4.6974 H       1  LIG1        0.0660
     69 H          -0.4936   -5.0623   -3.9757 H       1  LIG1        0.0660
     70 H          -1.5246   -3.8002   -4.7559 H       1  LIG1        0.0660
@<TRIPOS>BOND
     1     1    16   ar
     2     2    16   ar
     3     3    28    1
     4     3    37    1
     5     4    32    1
     6     4    37    1
     7     5    31    1
     8     5    39    1
     9     6    36   ar
    10     7    36   ar
    11     8    13   ar
    12     8    20   ar
    13     9    10    1
    14     9    11    1
    15     9    16    1
    16    10    13    1
    17    10    14    1
    18    11    12    1
    19    11    15    1
    20    12    13   ar
    21    12    17   ar
    22    14    18   ar
    23    14    19   ar
    24    15    21   ar
    25    15    23   ar
    26    17    22   ar
    27    18    24    1
    28    18    25   ar
    29    19    29   ar
    30    20    22   ar
    31    20    26    1
    32    21    28   ar
    33    23    30   ar
    34    24    27    1
    35    25    31   ar
    36    26    33    1
    37    27    34    1
    38    27    36    1
    39    28    32   ar
    40    29    31   ar
    41    30    32   ar
    42    33    35    1
    43    35    38    1
    44     9    40    1
    45    10    41    1
    46    11    42    1
    47    17    43    1
    48    19    44    1
    49    21    45    1
    50    22    46    1
    51    23    47    1
    52    24    48    1
    53    24    49    1
    54    25    50    1
    55    26    51    1
    56    26    52    1
    57    27    53    1
    58    29    54    1
    59    30    55    1
    60    33    56    1
    61    33    57    1
    62    34    58    1
    63    34    59    1
    64    34    60    1
    65    35    61    1
    66    35    62    1
    67    37    63    1
    68    37    64    1
    69    38    65    1
    70    38    66    1
    71    38    67    1
    72    39    68    1
    73    39    69    1
    74    39    70    1
@<TRIPOS>MOLECULE
3047752
 70 74 0 0 0
SMALL
GASTEIGER

@<TRIPOS>ATOM
      1 O           0.7677   -2.5800    2.6384 O.co2   1  LIG1       -0.5495
      2 O           1.4290   -0.6450    3.6202 O.co2   1  LIG1       -0.5495
      3 O           5.4984    0.7360   -2.0277 O.3     1  LIG1       -0.4526
      4 O           7.1737    0.4684   -0.3102 O.3     1  LIG1       -0.4526
      5 O          -2.1737   -4.4337   -3.0049 O.3     1  LIG1       -0.4951
      6 O          -5.8452   -1.5811    0.5456 O.co2   1  LIG1       -0.5495
      7 O          -5.9766   -3.8310    0.2123 O.co2   1  LIG1       -0.5495
      8 N          -1.2743    1.4434   -0.6474 N.ar    1  LIG1       -0.2556
      9 C           1.0814   -0.6877    1.2614 C.3     1  LIG1        0.0217
     10 C          -0.3816   -0.4923    0.7580 C.3     1  LIG1        0.0357
     11 C           1.7607    0.7018    1.3041 C.3     1  LIG1        0.0199
     12 C           0.8718    1.5448    0.4366 C.ar    1  LIG1       -0.0174
     13 C          -0.3049    0.8917    0.1129 C.ar    1  LIG1        0.0534
     14 C          -0.8756   -1.5660   -0.2237 C.ar    1  LIG1       -0.0344
     15 C           3.2214    0.6332    0.8648 C.ar    1  LIG1       -0.0356
     16 C           1.0691   -1.3550    2.6375 C.2     1  LIG1        0.0466
     17 C           1.0711    2.8477    0.0077 C.ar    1  LIG1       -0.0546
     18 C          -2.0919   -2.2816   -0.0457 C.ar    1  LIG1       -0.0395
     19 C          -0.1051   -1.8290   -1.3780 C.ar    1  LIG1       -0.0542
     20 C          -1.0532    2.6975   -1.1070 C.ar    1  LIG1        0.0416
     21 C           3.6102    0.7055   -0.4855 C.ar    1  LIG1       -0.0124
     22 C           0.0929    3.4325   -0.7886 C.ar    1  LIG1       -0.0401
     23 C           4.2151    0.4510    1.8574 C.ar    1  LIG1       -0.0543
     24 C          -2.9913   -2.0195    1.1605 C.3     1  LIG1       -0.0196
     25 C          -2.4667   -3.2238   -1.0279 C.ar    1  LIG1       -0.0165
     26 C          -2.1185    3.2965   -1.9895 C.3     1  LIG1       -0.0104
     27 C          -4.1435   -2.9966    1.4567 C.3     1  LIG1       -0.0003
     28 C           4.9558    0.6489   -0.7823 C.ar    1  LIG1        0.1665
     29 C          -0.4952   -2.7752   -2.3270 C.ar    1  LIG1       -0.0197
     30 C           5.5719    0.3847    1.5259 C.ar    1  LIG1       -0.0159
     31 C          -1.6794   -3.4800   -2.1552 C.ar    1  LIG1        0.1204
     32 C           5.9101    0.4969    0.1963 C.ar    1  LIG1        0.1662
     33 C          -3.0767    4.1878   -1.1977 C.3     1  LIG1       -0.0479
     34 C          -4.6080   -2.8428    2.9103 C.3     1  LIG1       -0.0570
     35 C          -4.1856    4.7903   -2.0628 C.3     1  LIG1       -0.0556
     36 C          -5.4320   -2.7714    0.6471 C.2     1  LIG1        0.0449
     37 C           6.8988    0.6115   -1.7178 C.3     1  LIG1        0.2332
     38 C          -3.6762    5.8014   -3.0797 C.3     1  LIG1       -0.0653
     39 C          -1.4405   -4.6692   -4.1956 C.3     1  LIG1        0.0788
     40 H           1.6443   -1.3606    0.6004 H       1  LIG1        0.0379
     41 H          -1.0562   -0.3931    1.6140 H       1  LIG1        0.0419
     42 H           1.7208    1.1776    2.2918 H       1  LIG1        0.0404
     43 H           1.9688    3.3906    0.2806 H       1  LIG1        0.0622
     44 H           0.8171   -1.2791   -1.5470 H       1  LIG1        0.0622
     45 H           2.8805    0.8055   -1.2815 H       1  LIG1        0.0658
     46 H           0.2212    4.4438   -1.1565 H       1  LIG1        0.0636
     47 H           3.9102    0.3432    2.8998 H       1  LIG1        0.0622
     48 H          -3.3795   -0.9981    1.0658 H       1  LIG1        0.0319
     49 H          -2.3350   -2.0432    2.0399 H       1  LIG1        0.0319
     50 H          -3.3997   -3.7766   -0.9292 H       1  LIG1        0.0657
     51 H          -2.6788    2.4865   -2.4734 H       1  LIG1        0.0328
     52 H          -1.6304    3.8585   -2.7940 H       1  LIG1        0.0328
     53 H          -3.8013   -4.0309    1.3292 H       1  LIG1        0.0361
     54 H           0.1483   -2.9293   -3.1823 H       1  LIG1        0.0654
     55 H           6.3236    0.2404    2.2917 H       1  LIG1        0.0655
     56 H          -2.5232    4.9936   -0.6999 H       1  LIG1        0.0269
     57 H          -3.5428    3.5949   -0.4005 H       1  LIG1        0.0269
     58 H          -4.9128   -1.8131    3.1315 H       1  LIG1        0.0236
     59 H          -3.8013   -3.1078    3.6030 H       1  LIG1        0.0236
     60 H          -5.4594   -3.4977    3.1302 H       1  LIG1        0.0236
     61 H          -4.9052    5.2928   -1.4055 H       1  LIG1        0.0263
     62 H          -4.7320    3.9939   -2.5816 H       1  LIG1        0.0263
     63 H           7.4171    1.5049   -2.0840 H       1  LIG1        0.1166
     64 H           7.2980   -0.2629   -2.2437 H       1  LIG1        0.1166
     65 H          -3.1007    6.5943   -2.5913 H       1  LIG1        0.0230
     66 H          -4.5190    6.2676   -3.6011 H       1  LIG1        0.0230
     67 H          -3.0420    5.3287   -3.8352 H       1  LIG1        0.0230
     68 H          -1.9703   -5.4364   -4.7691 H       1  LIG1        0.0660
     69 H          -0.4387   -5.0544   -3.9765 H       1  LIG1        0.0660
     70 H          -1.3909   -3.7676   -4.8160 H       1  LIG1        0.0660
@<TRIPOS>BOND
     1     1    16   ar
     2     2    16   ar
     3     3    28    1
     4     3    37    1
     5     4    32    1
     6     4    37    1
     7     5    31    1
     8     5    39    1
     9     6    36   ar
    10     7    36   ar
    11     8    13   ar
    12     8    20   ar
    13     9    10    1
    14     9    11    1
    15     9    16    1
    16    10    13    1
    17    10    14    1
    18    11    12    1
    19    11    15    1
    20    12    13   ar
    21    12    17   ar
    22    14    18   ar
    23    14    19   ar
    24    15    21   ar
    25    15    23   ar
    26    17    22   ar
    27    18    24    1
    28    18    25   ar
    29    19    29   ar
    30    20    22   ar
    31    20    26    1
    32    21    28   ar
    33    23    30   ar
    34    24    27    1
    35    25    31   ar
    36    26    33    1
    37    27    34    1
    38    27    36    1
    39    28    32   ar
    40    29    31   ar
    41    30    32   ar
    42    33    35    1
    43    35    38    1
    44     9    40    1
    45    10    41    1
    46    11    42    1
    47    17    43    1
    48    19    44    1
    49    21    45    1
    50    22    46    1
    51    23    47    1
    52    24    48    1
    53    24    49    1
    54    25    50    1
    55    26    51    1
    56    26    52    1
    57    27    53    1
    58    29    54    1
    59    30    55    1
    60    33    56    1
    61    33    57    1
    62    34    58    1
    63    34    59    1
    64    34    60    1
    65    35    61    1
    66    35    62    1
    67    37    63    1
    68    37    64    1
    69    38    65    1
    70    38    66    1
    71    38    67    1
    72    39    68    1
    73    39    69    1
    74    39    70    1
@<TRIPOS>MOLECULE
3047752
 70 74 0 0 0
SMALL
GASTEIGER

@<TRIPOS>ATOM
      1 O           1.8272   -2.1900    2.9153 O.co2   1  LIG1       -0.5495
      2 O           0.3882   -0.5358    3.5300 O.co2   1  LIG1       -0.5495
      3 O           6.5175    1.9593    1.7999 O.3     1  LIG1       -0.4526
      4 O           7.2288    0.7546   -0.1683 O.3     1  LIG1       -0.4526
      5 O          -2.2297   -4.5041   -2.9531 O.3     1  LIG1       -0.4951
      6 O          -5.8770   -1.6521    0.5921 O.co2   1  LIG1       -0.5495
      7 O          -5.9708   -3.9086    0.2864 O.co2   1  LIG1       -0.5495
      8 N          -1.2304    1.4387   -0.7216 N.ar    1  LIG1       -0.2556
      9 C           1.0172   -0.7408    1.2490 C.3     1  LIG1        0.0217
     10 C          -0.4283   -0.4903    0.7315 C.3     1  LIG1        0.0357
     11 C           1.7634    0.6216    1.2702 C.3     1  LIG1        0.0199
     12 C           0.9296    1.4682    0.3476 C.ar    1  LIG1       -0.0174
     13 C          -0.2829    0.8679    0.0520 C.ar    1  LIG1        0.0534
     14 C          -0.9314   -1.5801   -0.2306 C.ar    1  LIG1       -0.0344
     15 C           3.2329    0.5780    0.8554 C.ar    1  LIG1       -0.0356
     16 C           1.0563   -1.2108    2.6984 C.2     1  LIG1        0.0466
     17 C           1.1966    2.7347   -0.1477 C.ar    1  LIG1       -0.0546
     18 C          -2.1286   -2.3150   -0.0184 C.ar    1  LIG1       -0.0395
     19 C          -0.1829   -1.8413   -1.4001 C.ar    1  LIG1       -0.0542
     20 C          -0.9556    2.6657   -1.2203 C.ar    1  LIG1        0.0416
     21 C           4.1773    1.2966    1.6132 C.ar    1  LIG1       -0.0124
     22 C           0.2362    3.3444   -0.9508 C.ar    1  LIG1       -0.0401
     23 C           3.6672   -0.1115   -0.3021 C.ar    1  LIG1       -0.0543
     24 C          -3.0131   -2.0450    1.1964 C.3     1  LIG1       -0.0196
     25 C          -2.5050   -3.2771   -0.9815 C.ar    1  LIG1       -0.0165
     26 C          -2.0254    3.2980   -2.0715 C.3     1  LIG1       -0.0104
     27 C          -4.1515   -3.0299    1.5184 C.3     1  LIG1       -0.0003
     28 C           5.4916    1.2996    1.1946 C.ar    1  LIG1        0.1665
     29 C          -0.5731   -2.8054   -2.3301 C.ar    1  LIG1       -0.0197
     30 C           5.0098   -0.1013   -0.6962 C.ar    1  LIG1       -0.0159
     31 C          -1.7375   -3.5313   -2.1236 C.ar    1  LIG1        0.1204
     32 C           5.8964    0.6177    0.0727 C.ar    1  LIG1        0.1662
     33 C          -3.0507    4.0455   -1.2161 C.3     1  LIG1       -0.0479
     34 C          -4.6090   -2.8574    2.9716 C.3     1  LIG1       -0.0570
     35 C          -4.1141    4.7687   -2.0455 C.3     1  LIG1       -0.0556
     36 C          -5.4458   -2.8334    0.7086 C.2     1  LIG1        0.0449
     37 C           7.6149    1.5811    0.9484 C.3     1  LIG1        0.2332
     38 C          -5.0159    3.8269   -2.8286 C.3     1  LIG1       -0.0653
     39 C          -1.5294   -4.7223   -4.1668 C.3     1  LIG1        0.0788
     40 H           1.5369   -1.4882    0.6390 H       1  LIG1        0.0379
     41 H          -1.1272   -0.3454    1.5590 H       1  LIG1        0.0419
     42 H           1.7032    1.0950    2.2599 H       1  LIG1        0.0404
     43 H           2.1249    3.2413    0.0907 H       1  LIG1        0.0622
     44 H           0.7186   -1.2693   -1.6002 H       1  LIG1        0.0622
     45 H           3.8821    1.8372    2.5070 H       1  LIG1        0.0658
     46 H           0.4113    4.3357   -1.3514 H       1  LIG1        0.0636
     47 H           2.9509   -0.6650   -0.9038 H       1  LIG1        0.0622
     48 H          -3.4145   -1.0293    1.0932 H       1  LIG1        0.0319
     49 H          -2.3445   -2.0491    2.0672 H       1  LIG1        0.0319
     50 H          -3.4263   -3.8441   -0.8606 H       1  LIG1        0.0657
     51 H          -2.5146    2.5058   -2.6502 H       1  LIG1        0.0328
     52 H          -1.5665    3.9776   -2.7998 H       1  LIG1        0.0328
     53 H          -3.7974   -4.0625    1.4058 H       1  LIG1        0.0361
     54 H           0.0529   -2.9531   -3.2001 H       1  LIG1        0.0654
     55 H           5.3354   -0.6415   -1.5759 H       1  LIG1        0.0655
     56 H          -2.5342    4.7901   -0.5966 H       1  LIG1        0.0269
     57 H          -3.5376    3.3502   -0.5203 H       1  LIG1        0.0269
     58 H          -4.9197   -1.8271    3.1787 H       1  LIG1        0.0236
     59 H          -3.7964   -3.1066    3.6624 H       1  LIG1        0.0236
     60 H          -5.4540   -3.5150    3.2053 H       1  LIG1        0.0236
     61 H          -3.6346    5.4726   -2.7354 H       1  LIG1        0.0263
     62 H          -4.7375    5.3640   -1.3678 H       1  LIG1        0.0263
     63 H           8.3548    1.0379    1.5480 H       1  LIG1        0.1166
     64 H           8.0842    2.4921    0.5589 H       1  LIG1        0.1166
     65 H          -4.4615    3.2946   -3.6070 H       1  LIG1        0.0230
     66 H          -5.8137    4.3932   -3.3202 H       1  LIG1        0.0230
     67 H          -5.4819    3.0886   -2.1683 H       1  LIG1        0.0230
     68 H          -2.0611   -5.4986   -4.7253 H       1  LIG1        0.0660
     69 H          -0.5146   -5.0878   -3.9784 H       1  LIG1        0.0660
     70 H          -1.5160   -3.8193   -4.7860 H       1  LIG1        0.0660
@<TRIPOS>BOND
     1     1    16   ar
     2     2    16   ar
     3     3    28    1
     4     3    37    1
     5     4    32    1
     6     4    37    1
     7     5    31    1
     8     5    39    1
     9     6    36   ar
    10     7    36   ar
    11     8    13   ar
    12     8    20   ar
    13     9    10    1
    14     9    11    1
    15     9    16    1
    16    10    13    1
    17    10    14    1
    18    11    12    1
    19    11    15    1
    20    12    13   ar
    21    12    17   ar
    22    14    18   ar
    23    14    19   ar
    24    15    21   ar
    25    15    23   ar
    26    17    22   ar
    27    18    24    1
    28    18    25   ar
    29    19    29   ar
    30    20    22   ar
    31    20    26    1
    32    21    28   ar
    33    23    30   ar
    34    24    27    1
    35    25    31   ar
    36    26    33    1
    37    27    34    1
    38    27    36    1
    39    28    32   ar
    40    29    31   ar
    41    30    32   ar
    42    33    35    1
    43    35    38    1
    44     9    40    1
    45    10    41    1
    46    11    42    1
    47    17    43    1
    48    19    44    1
    49    21    45    1
    50    22    46    1
    51    23    47    1
    52    24    48    1
    53    24    49    1
    54    25    50    1
    55    26    51    1
    56    26    52    1
    57    27    53    1
    58    29    54    1
    59    30    55    1
    60    33    56    1
    61    33    57    1
    62    34    58    1
    63    34    59    1
    64    34    60    1
    65    35    61    1
    66    35    62    1
    67    37    63    1
    68    37    64    1
    69    38    65    1
    70    38    66    1
    71    38    67    1
    72    39    68    1
    73    39    69    1
    74    39    70    1
@<TRIPOS>MOLECULE
3047752
 70 74 0 0 0
SMALL
GASTEIGER

@<TRIPOS>ATOM
      1 O           0.6098   -0.6948    3.5329 O.co2   1  LIG1       -0.5495
      2 O           2.0751   -2.2536    2.7513 O.co2   1  LIG1       -0.5495
      3 O           6.5433    1.9911    1.7506 O.3     1  LIG1       -0.4526
      4 O           7.2603    0.7962   -0.2196 O.3     1  LIG1       -0.4526
      5 O          -2.2212   -4.3624   -3.0715 O.3     1  LIG1       -0.4951
      6 O          -5.6399   -1.5245    2.3851 O.co2   1  LIG1       -0.5495
      7 O          -5.3420   -3.3266    3.7384 O.co2   1  LIG1       -0.5495
      8 N          -1.2658    1.3937   -0.6325 N.ar    1  LIG1       -0.2556
      9 C           1.0832   -0.7819    1.2118 C.3     1  LIG1        0.0217
     10 C          -0.3924   -0.5340    0.7896 C.3     1  LIG1        0.0357
     11 C           1.8052    0.5938    1.2452 C.3     1  LIG1        0.0199
     12 C           0.9342    1.4373    0.3551 C.ar    1  LIG1       -0.0174
     13 C          -0.2873    0.8309    0.1093 C.ar    1  LIG1        0.0534
     14 C          -0.9452   -1.6114   -0.1594 C.ar    1  LIG1       -0.0344
     15 C           3.2678    0.5855    0.8096 C.ar    1  LIG1       -0.0356
     16 C           1.2450   -1.3053    2.6309 C.2     1  LIG1        0.0466
     17 C           1.1754    2.7050   -0.1495 C.ar    1  LIG1       -0.0546
     18 C          -2.1280   -2.3540    0.1004 C.ar    1  LIG1       -0.0395
     19 C          -0.2649   -1.8340   -1.3799 C.ar    1  LIG1       -0.0542
     20 C          -1.0189    2.6255   -1.1353 C.ar    1  LIG1        0.0416
     21 C           4.2080    1.3124    1.5657 C.ar    1  LIG1       -0.0124
     22 C           0.1791    3.3111   -0.9105 C.ar    1  LIG1       -0.0401
     23 C           3.7043   -0.0941   -0.3531 C.ar    1  LIG1       -0.0543
     24 C          -2.9650   -2.1269    1.3692 C.3     1  LIG1       -0.0196
     25 C          -2.5677   -3.2696   -0.8873 C.ar    1  LIG1       -0.0165
     26 C          -2.1229    3.2598   -1.9396 C.3     1  LIG1       -0.0104
     27 C          -4.0547   -3.1696    1.7242 C.3     1  LIG1       -0.0003
     28 C           5.5212    1.3275    1.1437 C.ar    1  LIG1        0.1665
     29 C          -0.7150   -2.7582   -2.3202 C.ar    1  LIG1       -0.0197
     30 C           5.0465   -0.0706   -0.7507 C.ar    1  LIG1       -0.0159
     31 C          -1.8679   -3.4871   -2.0770 C.ar    1  LIG1        0.1204
     32 C           5.9299    0.6526    0.0191 C.ar    1  LIG1        0.1662
     33 C          -3.0568    4.1380   -1.1019 C.3     1  LIG1       -0.0479
     34 C          -3.4334   -4.4850    2.1982 C.3     1  LIG1       -0.0570
     35 C          -3.9204    3.3344   -0.1257 C.3     1  LIG1       -0.0556
     36 C          -5.0798   -2.6050    2.7339 C.2     1  LIG1        0.0449
     37 C           7.6447    1.6085    0.9069 C.3     1  LIG1        0.2332
     38 C          -4.9217    4.2243    0.5939 C.3     1  LIG1       -0.0653
     39 C          -3.3069   -5.2338   -2.7805 C.3     1  LIG1        0.0788
     40 H           1.5748   -1.4891    0.5350 H       1  LIG1        0.0379
     41 H          -1.0417   -0.4020    1.6588 H       1  LIG1        0.0419
     42 H           1.7490    1.0492    2.2435 H       1  LIG1        0.0404
     43 H           2.1102    3.2161    0.0522 H       1  LIG1        0.0622
     44 H           0.6262   -1.2573   -1.6143 H       1  LIG1        0.0622
     45 H           3.9111    1.8428    2.4641 H       1  LIG1        0.0658
     46 H           0.3332    4.3041   -1.3155 H       1  LIG1        0.0636
     47 H           2.9920   -0.6564   -0.9531 H       1  LIG1        0.0622
     48 H          -3.4204   -1.1347    1.2616 H       1  LIG1        0.0319
     49 H          -2.2804   -2.0744    2.2253 H       1  LIG1        0.0319
     50 H          -3.4863   -3.8137   -0.7156 H       1  LIG1        0.0657
     51 H          -2.6994    2.4745   -2.4441 H       1  LIG1        0.0328
     52 H          -1.6765    3.8662   -2.7377 H       1  LIG1        0.0328
     53 H          -4.6763   -3.3814    0.8462 H       1  LIG1        0.0361
     54 H          -0.1659   -2.8973   -3.2446 H       1  LIG1        0.0654
     55 H           5.3749   -0.6085   -1.6309 H       1  LIG1        0.0655
     56 H          -3.7149    4.6854   -1.7879 H       1  LIG1        0.0269
     57 H          -2.4779    4.8893   -0.5502 H       1  LIG1        0.0269
     58 H          -2.8562   -4.3425    3.1185 H       1  LIG1        0.0236
     59 H          -2.7639   -4.9132    1.4461 H       1  LIG1        0.0236
     60 H          -4.2073   -5.2331    2.4028 H       1  LIG1        0.0236
     61 H          -3.2906    2.8403    0.6222 H       1  LIG1        0.0263
     62 H          -4.4624    2.5496   -0.6662 H       1  LIG1        0.0263
     63 H           8.3731    1.0530    1.5095 H       1  LIG1        0.1166
     64 H           8.1271    2.5180    0.5301 H       1  LIG1        0.1166
     65 H          -4.4116    5.0043    1.1680 H       1  LIG1        0.0230
     66 H          -5.5251    3.6306    1.2877 H       1  LIG1        0.0230
     67 H          -5.5995    4.7073   -0.1173 H       1  LIG1        0.0230
     68 H          -3.4151   -5.9227   -3.6239 H       1  LIG1        0.0660
     69 H          -4.2452   -4.6774   -2.6868 H       1  LIG1        0.0660
     70 H          -3.1082   -5.8350   -1.8867 H       1  LIG1        0.0660
@<TRIPOS>BOND
     1     1    16   ar
     2     2    16   ar
     3     3    28    1
     4     3    37    1
     5     4    32    1
     6     4    37    1
     7     5    31    1
     8     5    39    1
     9     6    36   ar
    10     7    36   ar
    11     8    13   ar
    12     8    20   ar
    13     9    10    1
    14     9    11    1
    15     9    16    1
    16    10    13    1
    17    10    14    1
    18    11    12    1
    19    11    15    1
    20    12    13   ar
    21    12    17   ar
    22    14    18   ar
    23    14    19   ar
    24    15    21   ar
    25    15    23   ar
    26    17    22   ar
    27    18    24    1
    28    18    25   ar
    29    19    29   ar
    30    20    22   ar
    31    20    26    1
    32    21    28   ar
    33    23    30   ar
    34    24    27    1
    35    25    31   ar
    36    26    33    1
    37    27    34    1
    38    27    36    1
    39    28    32   ar
    40    29    31   ar
    41    30    32   ar
    42    33    35    1
    43    35    38    1
    44     9    40    1
    45    10    41    1
    46    11    42    1
    47    17    43    1
    48    19    44    1
    49    21    45    1
    50    22    46    1
    51    23    47    1
    52    24    48    1
    53    24    49    1
    54    25    50    1
    55    26    51    1
    56    26    52    1
    57    27    53    1
    58    29    54    1
    59    30    55    1
    60    33    56    1
    61    33    57    1
    62    34    58    1
    63    34    59    1
    64    34    60    1
    65    35    61    1
    66    35    62    1
    67    37    63    1
    68    37    64    1
    69    38    65    1
    70    38    66    1
    71    38    67    1
    72    39    68    1
    73    39    69    1
    74    39    70    1
@<TRIPOS>MOLECULE
3047752
 70 74 0 0 0
SMALL
GASTEIGER

@<TRIPOS>ATOM
      1 O           1.9175   -2.1464    2.9232 O.co2   1  LIG1       -0.5495
      2 O           0.3876   -0.5744    3.5333 O.co2   1  LIG1       -0.5495
      3 O           6.5208    1.9760    1.7671 O.3     1  LIG1       -0.4526
      4 O           7.2390    0.7413   -0.1793 O.3     1  LIG1       -0.4526
      5 O          -2.2279   -4.5094   -2.9398 O.3     1  LIG1       -0.4951
      6 O          -5.9479   -3.9822    0.3246 O.co2   1  LIG1       -0.5495
      7 O          -5.8761   -1.7154    0.5505 O.co2   1  LIG1       -0.5495
      8 N          -1.2512    1.4563   -0.6591 N.ar    1  LIG1       -0.2556
      9 C           1.0228   -0.7540    1.2513 C.3     1  LIG1        0.0217
     10 C          -0.4275   -0.4965    0.7485 C.3     1  LIG1        0.0357
     11 C           1.7758    0.6043    1.2653 C.3     1  LIG1        0.0199
     12 C           0.9373    1.4545    0.3504 C.ar    1  LIG1       -0.0174
     13 C          -0.2880    0.8679    0.0811 C.ar    1  LIG1        0.0534
     14 C          -0.9358   -1.5790   -0.2205 C.ar    1  LIG1       -0.0344
     15 C           3.2434    0.5612    0.8468 C.ar    1  LIG1       -0.0356
     16 C           1.0901   -1.2143    2.7029 C.2     1  LIG1        0.0466
     17 C           1.2086    2.7170   -0.1523 C.ar    1  LIG1       -0.0546
     18 C          -2.1293   -2.3196   -0.0063 C.ar    1  LIG1       -0.0395
     19 C          -0.1926   -1.8321   -1.3953 C.ar    1  LIG1       -0.0542
     20 C          -0.9776    2.6844   -1.1565 C.ar    1  LIG1        0.0416
     21 C           4.1846    1.2980    1.5915 C.ar    1  LIG1       -0.0124
     22 C           0.2354    3.3404   -0.9287 C.ar    1  LIG1       -0.0401
     23 C           3.6808   -0.1456   -0.2986 C.ar    1  LIG1       -0.0543
     24 C          -3.0167   -2.0505    1.2067 C.3     1  LIG1       -0.0196
     25 C          -2.5025   -3.2843   -0.9680 C.ar    1  LIG1       -0.0165
     26 C          -2.0618    3.3349   -1.9768 C.3     1  LIG1       -0.0104
     27 C          -4.1452   -3.0439    1.5361 C.3     1  LIG1       -0.0003
     28 C           5.4986    1.3012    1.1736 C.ar    1  LIG1        0.1665
     29 C          -0.5814   -2.7970   -2.3256 C.ar    1  LIG1       -0.0197
     30 C           5.0235   -0.1347   -0.6929 C.ar    1  LIG1       -0.0159
     31 C          -1.7389   -3.5325   -2.1135 C.ar    1  LIG1        0.1204
     32 C           5.9070    0.6020    0.0629 C.ar    1  LIG1        0.1662
     33 C          -2.2361    2.6359   -3.3275 C.3     1  LIG1       -0.0479
     34 C          -4.6216   -2.8445    2.9799 C.3     1  LIG1       -0.0570
     35 C          -3.3537    3.2424   -4.1785 C.3     1  LIG1       -0.0556
     36 C          -5.4362   -2.8879    0.7122 C.2     1  LIG1        0.0449
     37 C           7.6212    1.5857    0.9247 C.3     1  LIG1        0.2332
     38 C          -3.0384    4.6438   -4.6787 C.3     1  LIG1       -0.0653
     39 C          -1.5350   -4.7214   -4.1587 C.3     1  LIG1        0.0788
     40 H           1.5313   -1.5056    0.6378 H       1  LIG1        0.0379
     41 H          -1.1206   -0.3604    1.5820 H       1  LIG1        0.0419
     42 H           1.7200    1.0773    2.2558 H       1  LIG1        0.0404
     43 H           2.1494    3.2115    0.0617 H       1  LIG1        0.0622
     44 H           0.7052   -1.2550   -1.5984 H       1  LIG1        0.0622
     45 H           3.8872    1.8519    2.4761 H       1  LIG1        0.0658
     46 H           0.4175    4.3279   -1.3359 H       1  LIG1        0.0636
     47 H           2.9678   -0.7146   -0.8898 H       1  LIG1        0.0622
     48 H          -3.4281   -1.0395    1.0960 H       1  LIG1        0.0319
     49 H          -2.3492   -2.0422    2.0783 H       1  LIG1        0.0319
     50 H          -3.4187   -3.8584   -0.8430 H       1  LIG1        0.0657
     51 H          -1.8284    4.3958   -2.1192 H       1  LIG1        0.0328
     52 H          -2.9991    3.2942   -1.4083 H       1  LIG1        0.0328
     53 H          -3.7736   -4.0729    1.4495 H       1  LIG1        0.0361
     54 H           0.0408   -2.9395   -3.1995 H       1  LIG1        0.0654
     55 H           5.3523   -0.6889   -1.5631 H       1  LIG1        0.0655
     56 H          -2.4717    1.5768   -3.1605 H       1  LIG1        0.0269
     57 H          -1.2923    2.6571   -3.8869 H       1  LIG1        0.0269
     58 H          -4.9580   -1.8163    3.1566 H       1  LIG1        0.0236
     59 H          -3.8111   -3.0563    3.6856 H       1  LIG1        0.0236
     60 H          -5.4542   -3.5147    3.2226 H       1  LIG1        0.0236
     61 H          -4.2914    3.2578   -3.6109 H       1  LIG1        0.0263
     62 H          -3.5193    2.5939   -5.0471 H       1  LIG1        0.0263
     63 H           8.3598    1.0533    1.5354 H       1  LIG1        0.1166
     64 H           8.0901    2.4913    0.5226 H       1  LIG1        0.1166
     65 H          -2.9743    5.3605   -3.8550 H       1  LIG1        0.0230
     66 H          -3.8273    4.9871   -5.3555 H       1  LIG1        0.0230
     67 H          -2.0913    4.6609   -5.2272 H       1  LIG1        0.0230
     68 H          -2.0639   -5.5027   -4.7132 H       1  LIG1        0.0660
     69 H          -0.5153   -5.0776   -3.9784 H       1  LIG1        0.0660
     70 H          -1.5347   -3.8182   -4.7782 H       1  LIG1        0.0660
@<TRIPOS>BOND
     1     1    16   ar
     2     2    16   ar
     3     3    28    1
     4     3    37    1
     5     4    32    1
     6     4    37    1
     7     5    31    1
     8     5    39    1
     9     6    36   ar
    10     7    36   ar
    11     8    13   ar
    12     8    20   ar
    13     9    10    1
    14     9    11    1
    15     9    16    1
    16    10    13    1
    17    10    14    1
    18    11    12    1
    19    11    15    1
    20    12    13   ar
    21    12    17   ar
    22    14    18   ar
    23    14    19   ar
    24    15    21   ar
    25    15    23   ar
    26    17    22   ar
    27    18    24    1
    28    18    25   ar
    29    19    29   ar
    30    20    22   ar
    31    20    26    1
    32    21    28   ar
    33    23    30   ar
    34    24    27    1
    35    25    31   ar
    36    26    33    1
    37    27    34    1
    38    27    36    1
    39    28    32   ar
    40    29    31   ar
    41    30    32   ar
    42    33    35    1
    43    35    38    1
    44     9    40    1
    45    10    41    1
    46    11    42    1
    47    17    43    1
    48    19    44    1
    49    21    45    1
    50    22    46    1
    51    23    47    1
    52    24    48    1
    53    24    49    1
    54    25    50    1
    55    26    51    1
    56    26    52    1
    57    27    53    1
    58    29    54    1
    59    30    55    1
    60    33    56    1
    61    33    57    1
    62    34    58    1
    63    34    59    1
    64    34    60    1
    65    35    61    1
    66    35    62    1
    67    37    63    1
    68    37    64    1
    69    38    65    1
    70    38    66    1
    71    38    67    1
    72    39    68    1
    73    39    69    1
    74    39    70    1
@<TRIPOS>MOLECULE
3047752
 70 74 0 0 0
SMALL
GASTEIGER

@<TRIPOS>ATOM
      1 O           1.8329   -2.6741    2.2295 O.co2   1  LIG1       -0.5495
      2 O           1.1089   -0.8982    3.4547 O.co2   1  LIG1       -0.5495
      3 O           5.5844    0.8792   -1.9928 O.3     1  LIG1       -0.4526
      4 O           7.2351    0.5582   -0.2604 O.3     1  LIG1       -0.4526
      5 O          -2.3330   -4.3393   -3.0350 O.3     1  LIG1       -0.4951
      6 O          -5.0265   -1.3745    2.9928 O.co2   1  LIG1       -0.5495
      7 O          -5.9752   -3.4403    2.9601 O.co2   1  LIG1       -0.5495
      8 N          -1.2783    1.4353   -0.6040 N.ar    1  LIG1       -0.2556
      9 C           1.1688   -0.7277    1.0884 C.3     1  LIG1        0.0217
     10 C          -0.3315   -0.5210    0.7403 C.3     1  LIG1        0.0357
     11 C           1.7976    0.6739    1.2751 C.3     1  LIG1        0.0199
     12 C           0.8856    1.5428    0.4543 C.ar    1  LIG1       -0.0174
     13 C          -0.2936    0.8848    0.1375 C.ar    1  LIG1        0.0534
     14 C          -0.8978   -1.5633   -0.2348 C.ar    1  LIG1       -0.0344
     15 C           3.2667    0.6813    0.8621 C.ar    1  LIG1       -0.0356
     16 C           1.3548   -1.5127    2.3797 C.2     1  LIG1        0.0466
     17 C           1.0606    2.8564    0.0518 C.ar    1  LIG1       -0.0546
     18 C          -2.0955   -2.2903    0.0030 C.ar    1  LIG1       -0.0395
     19 C          -0.2128   -1.7704   -1.4568 C.ar    1  LIG1       -0.0542
     20 C          -1.0780    2.7008   -1.0415 C.ar    1  LIG1        0.0416
     21 C           3.6751    0.8086   -0.4782 C.ar    1  LIG1       -0.0124
     22 C           0.0624    3.4438   -0.7197 C.ar    1  LIG1       -0.0401
     23 C           4.2469    0.4755    1.8635 C.ar    1  LIG1       -0.0543
     24 C          -2.9434   -2.0570    1.2612 C.3     1  LIG1       -0.0196
     25 C          -2.5285   -3.1945   -0.9938 C.ar    1  LIG1       -0.0165
     26 C          -2.1500    3.2879   -1.9226 C.3     1  LIG1       -0.0104
     27 C          -4.0702   -3.0658    1.5846 C.3     1  LIG1       -0.0003
     28 C           5.0248    0.7635   -0.7571 C.ar    1  LIG1        0.1665
     29 C          -0.6540   -2.6866   -2.4092 C.ar    1  LIG1       -0.0197
     30 C           5.6090    0.4292    1.5506 C.ar    1  LIG1       -0.0159
     31 C          -1.8052   -3.4183   -2.1675 C.ar    1  LIG1        0.1204
     32 C           5.9655    0.5811    0.2297 C.ar    1  LIG1        0.1662
     33 C          -2.3422    2.5157   -3.2343 C.3     1  LIG1       -0.0479
     34 C          -3.4956   -4.3998    2.0714 C.3     1  LIG1       -0.0570
     35 C          -1.1109    2.4513   -4.1452 C.3     1  LIG1       -0.0556
     36 C          -5.1024   -2.5803    2.6281 C.2     1  LIG1        0.0449
     37 C           6.9769    0.7037   -1.6705 C.3     1  LIG1        0.2332
     38 C          -0.6405    3.8127   -4.6326 C.3     1  LIG1       -0.0653
     39 C          -1.3581   -5.0896   -3.7491 C.3     1  LIG1        0.0788
     40 H           1.6952   -1.2661    0.2895 H       1  LIG1        0.0379
     41 H          -0.9292   -0.4594    1.6542 H       1  LIG1        0.0419
     42 H           1.7230    1.0542    2.3020 H       1  LIG1        0.0404
     43 H           1.9567    3.4052    0.3194 H       1  LIG1        0.0622
     44 H           0.6810   -1.1919   -1.6794 H       1  LIG1        0.0622
     45 H           2.9549    0.9219   -1.2810 H       1  LIG1        0.0658
     46 H           0.1789    4.4623   -1.0712 H       1  LIG1        0.0636
     47 H           3.9285    0.3161    2.8954 H       1  LIG1        0.0622
     48 H          -3.3751   -1.0542    1.1512 H       1  LIG1        0.0319
     49 H          -2.2739   -2.0326    2.1299 H       1  LIG1        0.0319
     50 H          -3.4438   -3.7627   -0.8644 H       1  LIG1        0.0657
     51 H          -1.9420    4.3430   -2.1343 H       1  LIG1        0.0328
     52 H          -3.0923    3.2733   -1.3608 H       1  LIG1        0.0328
     53 H          -4.6777   -3.2404    0.6888 H       1  LIG1        0.0361
     54 H          -0.0923   -2.7890   -3.3287 H       1  LIG1        0.0654
     55 H           6.3494    0.2546    2.3212 H       1  LIG1        0.0655
     56 H          -3.1704    2.9746   -3.7887 H       1  LIG1        0.0269
     57 H          -2.6555    1.4882   -3.0095 H       1  LIG1        0.0269
     58 H          -3.0254   -4.2906    3.0551 H       1  LIG1        0.0236
     59 H          -2.7435   -4.7952    1.3822 H       1  LIG1        0.0236
     60 H          -4.2769   -5.1625    2.1618 H       1  LIG1        0.0236
     61 H          -1.3625    1.8387   -5.0195 H       1  LIG1        0.0263
     62 H          -0.2853    1.9397   -3.6378 H       1  LIG1        0.0263
     63 H           7.5315    1.5751   -2.0373 H       1  LIG1        0.1166
     64 H           7.3476   -0.1881   -2.1895 H       1  LIG1        0.1166
     65 H          -1.4499    4.3513   -5.1354 H       1  LIG1        0.0230
     66 H           0.1802    3.6919   -5.3473 H       1  LIG1        0.0230
     67 H          -0.2724    4.4308   -3.8089 H       1  LIG1        0.0230
     68 H          -1.8578   -5.9651   -4.1749 H       1  LIG1        0.0660
     69 H          -0.5581   -5.4498   -3.0924 H       1  LIG1        0.0660
     70 H          -0.9497   -4.5051   -4.5794 H       1  LIG1        0.0660
@<TRIPOS>BOND
     1     1    16   ar
     2     2    16   ar
     3     3    28    1
     4     3    37    1
     5     4    32    1
     6     4    37    1
     7     5    31    1
     8     5    39    1
     9     6    36   ar
    10     7    36   ar
    11     8    13   ar
    12     8    20   ar
    13     9    10    1
    14     9    11    1
    15     9    16    1
    16    10    13    1
    17    10    14    1
    18    11    12    1
    19    11    15    1
    20    12    13   ar
    21    12    17   ar
    22    14    18   ar
    23    14    19   ar
    24    15    21   ar
    25    15    23   ar
    26    17    22   ar
    27    18    24    1
    28    18    25   ar
    29    19    29   ar
    30    20    22   ar
    31    20    26    1
    32    21    28   ar
    33    23    30   ar
    34    24    27    1
    35    25    31   ar
    36    26    33    1
    37    27    34    1
    38    27    36    1
    39    28    32   ar
    40    29    31   ar
    41    30    32   ar
    42    33    35    1
    43    35    38    1
    44     9    40    1
    45    10    41    1
    46    11    42    1
    47    17    43    1
    48    19    44    1
    49    21    45    1
    50    22    46    1
    51    23    47    1
    52    24    48    1
    53    24    49    1
    54    25    50    1
    55    26    51    1
    56    26    52    1
    57    27    53    1
    58    29    54    1
    59    30    55    1
    60    33    56    1
    61    33    57    1
    62    34    58    1
    63    34    59    1
    64    34    60    1
    65    35    61    1
    66    35    62    1
    67    37    63    1
    68    37    64    1
    69    38    65    1
    70    38    66    1
    71    38    67    1
    72    39    68    1
    73    39    69    1
    74    39    70    1
@<TRIPOS>MOLECULE
3047752
 70 74 0 0 0
SMALL
GASTEIGER

@<TRIPOS>ATOM
      1 O           0.9113   -0.6835    3.5020 O.co2   1  LIG1       -0.5495
      2 O           2.2766   -2.2321    2.5402 O.co2   1  LIG1       -0.5495
      3 O           5.6148    0.8941   -2.0737 O.3     1  LIG1       -0.4526
      4 O           7.2840    0.5792   -0.3580 O.3     1  LIG1       -0.4526
      5 O          -2.3245   -4.3990   -2.8391 O.3     1  LIG1       -0.4951
      6 O          -4.9698   -2.3675    3.1835 O.co2   1  LIG1       -0.5495
      7 O          -4.3806   -4.4575    3.8560 O.co2   1  LIG1       -0.5495
      8 N          -1.2530    1.4530   -0.5836 N.ar    1  LIG1       -0.2556
      9 C           1.2219   -0.6548    1.1517 C.3     1  LIG1        0.0217
     10 C          -0.2794   -0.4598    0.8039 C.3     1  LIG1        0.0357
     11 C           1.8671    0.7511    1.2484 C.3     1  LIG1        0.0199
     12 C           0.9388    1.5888    0.4132 C.ar    1  LIG1       -0.0174
     13 C          -0.2506    0.9243    0.1507 C.ar    1  LIG1        0.0534
     14 C          -0.8525   -1.5351   -0.1278 C.ar    1  LIG1       -0.0344
     15 C           3.3286    0.7371    0.8087 C.ar    1  LIG1       -0.0356
     16 C           1.4583   -1.2674    2.5255 C.2     1  LIG1        0.0466
     17 C           1.1074    2.8866   -0.0402 C.ar    1  LIG1       -0.0546
     18 C          -2.0350   -2.2674    0.1333 C.ar    1  LIG1       -0.0395
     19 C          -0.1860   -1.7760   -1.3542 C.ar    1  LIG1       -0.0542
     20 C          -1.0564    2.7005   -1.0753 C.ar    1  LIG1        0.0416
     21 C           3.7213    0.8469   -0.5370 C.ar    1  LIG1       -0.0124
     22 C           0.0943    3.4499   -0.8093 C.ar    1  LIG1       -0.0401
     23 C           4.3216    0.5347    1.7993 C.ar    1  LIG1       -0.0543
     24 C          -2.9169   -2.1097    1.3698 C.3     1  LIG1       -0.0196
     25 C          -2.4834   -3.2029   -0.8316 C.ar    1  LIG1       -0.0165
     26 C          -2.1433    3.2595   -1.9569 C.3     1  LIG1       -0.0104
     27 C          -3.0086   -3.3777    2.2407 C.3     1  LIG1       -0.0003
     28 C           5.0684    0.7918   -0.8308 C.ar    1  LIG1        0.1665
     29 C          -0.6369   -2.7210   -2.2792 C.ar    1  LIG1       -0.0197
     30 C           5.6791    0.4755    1.4723 C.ar    1  LIG1       -0.0159
     31 C          -1.7830   -3.4531   -2.0100 C.ar    1  LIG1        0.1204
     32 C           6.0202    0.6133    0.1465 C.ar    1  LIG1        0.1662
     33 C          -2.3575    2.4436   -3.2381 C.3     1  LIG1       -0.0479
     34 C          -1.7280   -3.5942    3.0444 C.3     1  LIG1       -0.0570
     35 C          -1.1397    2.4510   -4.1668 C.3     1  LIG1       -0.0556
     36 C          -4.2195   -3.3844    3.1989 C.2     1  LIG1        0.0449
     37 C           7.0099    0.7134   -1.7656 C.3     1  LIG1        0.2332
     38 C          -1.4159    1.6841   -5.4509 C.3     1  LIG1       -0.0653
     39 C          -1.3840   -5.0853   -3.6549 C.3     1  LIG1        0.0788
     40 H           1.7374   -1.2655    0.3995 H       1  LIG1        0.0379
     41 H          -0.8687   -0.3674    1.7174 H       1  LIG1        0.0419
     42 H           1.8207    1.1811    2.2581 H       1  LIG1        0.0404
     43 H           2.0114    3.4407    0.1873 H       1  LIG1        0.0622
     44 H           0.7036   -1.2017   -1.6046 H       1  LIG1        0.0622
     45 H           2.9933    0.9573   -1.3330 H       1  LIG1        0.0658
     46 H           0.2074    4.4532   -1.2021 H       1  LIG1        0.0636
     47 H           4.0171    0.3818    2.8363 H       1  LIG1        0.0622
     48 H          -3.9137   -1.8384    0.9954 H       1  LIG1        0.0319
     49 H          -2.6159   -1.2607    1.9876 H       1  LIG1        0.0319
     50 H          -3.4014   -3.7576   -0.6437 H       1  LIG1        0.0657
     51 H          -1.9276    4.3028   -2.2193 H       1  LIG1        0.0328
     52 H          -3.0758    3.2727   -1.3790 H       1  LIG1        0.0328
     53 H          -3.1526   -4.2575    1.6000 H       1  LIG1        0.0361
     54 H          -0.0819   -2.8433   -3.2007 H       1  LIG1        0.0654
     55 H           6.4261    0.2995    2.2361 H       1  LIG1        0.0655
     56 H          -3.2178    2.8647   -3.7732 H       1  LIG1        0.0269
     57 H          -2.6194    1.4085   -2.9858 H       1  LIG1        0.0269
     58 H          -1.5448   -2.7612    3.7317 H       1  LIG1        0.0236
     59 H          -0.8596   -3.6877    2.3831 H       1  LIG1        0.0236
     60 H          -1.7782   -4.5111    3.6423 H       1  LIG1        0.0236
     61 H          -0.2768    1.9961   -3.6679 H       1  LIG1        0.0263
     62 H          -0.8660    3.4829   -4.4153 H       1  LIG1        0.0263
     63 H           7.5652    1.5781   -2.1462 H       1  LIG1        0.1166
     64 H           7.3695   -0.1851   -2.2805 H       1  LIG1        0.1166
     65 H          -1.6714    0.6410   -5.2374 H       1  LIG1        0.0230
     66 H          -0.5305    1.6914   -6.0946 H       1  LIG1        0.0230
     67 H          -2.2439    2.1347   -6.0073 H       1  LIG1        0.0230
     68 H          -1.8791   -5.9735   -4.0599 H       1  LIG1        0.0660
     69 H          -0.5147   -5.4235   -3.0797 H       1  LIG1        0.0660
     70 H          -1.0770   -4.4622   -4.5008 H       1  LIG1        0.0660
@<TRIPOS>BOND
     1     1    16   ar
     2     2    16   ar
     3     3    28    1
     4     3    37    1
     5     4    32    1
     6     4    37    1
     7     5    31    1
     8     5    39    1
     9     6    36   ar
    10     7    36   ar
    11     8    13   ar
    12     8    20   ar
    13     9    10    1
    14     9    11    1
    15     9    16    1
    16    10    13    1
    17    10    14    1
    18    11    12    1
    19    11    15    1
    20    12    13   ar
    21    12    17   ar
    22    14    18   ar
    23    14    19   ar
    24    15    21   ar
    25    15    23   ar
    26    17    22   ar
    27    18    24    1
    28    18    25   ar
    29    19    29   ar
    30    20    22   ar
    31    20    26    1
    32    21    28   ar
    33    23    30   ar
    34    24    27    1
    35    25    31   ar
    36    26    33    1
    37    27    34    1
    38    27    36    1
    39    28    32   ar
    40    29    31   ar
    41    30    32   ar
    42    33    35    1
    43    35    38    1
    44     9    40    1
    45    10    41    1
    46    11    42    1
    47    17    43    1
    48    19    44    1
    49    21    45    1
    50    22    46    1
    51    23    47    1
    52    24    48    1
    53    24    49    1
    54    25    50    1
    55    26    51    1
    56    26    52    1
    57    27    53    1
    58    29    54    1
    59    30    55    1
    60    33    56    1
    61    33    57    1
    62    34    58    1
    63    34    59    1
    64    34    60    1
    65    35    61    1
    66    35    62    1
    67    37    63    1
    68    37    64    1
    69    38    65    1
    70    38    66    1
    71    38    67    1
    72    39    68    1
    73    39    69    1
    74    39    70    1
@<TRIPOS>MOLECULE
3047752
 70 74 0 0 0
SMALL
GASTEIGER

@<TRIPOS>ATOM
      1 O           1.6342   -2.7566    2.2610 O.co2   1  LIG1       -0.5495
      2 O           1.4434   -0.8722    3.5221 O.co2   1  LIG1       -0.5495
      3 O           5.6408    0.8957   -1.9641 O.3     1  LIG1       -0.4526
      4 O           7.3002    0.5890   -0.2377 O.3     1  LIG1       -0.4526
      5 O          -2.4735   -4.4512   -2.8048 O.3     1  LIG1       -0.4951
      6 O          -6.1573   -1.4885    1.3076 O.co2   1  LIG1       -0.5495
      7 O          -5.3140   -1.2017    3.4002 O.co2   1  LIG1       -0.5495
      8 N          -1.2140    1.3710   -0.5839 N.ar    1  LIG1       -0.2556
      9 C           1.2773   -0.7119    1.1551 C.3     1  LIG1        0.0217
     10 C          -0.2258   -0.5549    0.7753 C.3     1  LIG1        0.0357
     11 C           1.8686    0.7071    1.3205 C.3     1  LIG1        0.0199
     12 C           0.9413    1.5367    0.4788 C.ar    1  LIG1       -0.0174
     13 C          -0.2138    0.8426    0.1542 C.ar    1  LIG1        0.0534
     14 C          -0.8374   -1.6026   -0.1650 C.ar    1  LIG1       -0.0344
     15 C           3.3382    0.7315    0.9055 C.ar    1  LIG1       -0.0356
     16 C           1.4346   -1.5209    2.4377 C.2     1  LIG1        0.0466
     17 C           1.0829    2.8514    0.0683 C.ar    1  LIG1       -0.0546
     18 C          -2.2214   -1.9177   -0.1623 C.ar    1  LIG1       -0.0395
     19 C          -0.0305   -2.2374   -1.1337 C.ar    1  LIG1       -0.0542
     20 C          -1.0674    2.6483   -1.0038 C.ar    1  LIG1        0.0416
     21 C           3.7406    0.8468   -0.4383 C.ar    1  LIG1       -0.0124
     22 C           0.0675    3.4106   -0.7020 C.ar    1  LIG1       -0.0401
     23 C           4.3231    0.5371    1.9041 C.ar    1  LIG1       -0.0543
     24 C          -3.2590   -1.2573    0.7421 C.3     1  LIG1       -0.0196
     25 C          -2.7150   -2.8709   -1.0862 C.ar    1  LIG1       -0.0165
     26 C          -2.1410    3.2359   -1.8913 C.3     1  LIG1       -0.0104
     27 C          -3.9418   -2.2268    1.7248 C.3     1  LIG1       -0.0003
     28 C           5.0884    0.7975   -0.7238 C.ar    1  LIG1        0.1665
     29 C          -0.5355   -3.1923   -2.0210 C.ar    1  LIG1       -0.0197
     30 C           5.6834    0.4865    1.5843 C.ar    1  LIG1       -0.0159
     31 C          -1.8792   -3.5308   -1.9828 C.ar    1  LIG1        0.1204
     32 C           6.0337    0.6235    0.2597 C.ar    1  LIG1        0.1662
     33 C          -3.5751    2.7945   -1.5752 C.3     1  LIG1       -0.0479
     34 C          -3.0083   -2.6301    2.8604 C.3     1  LIG1       -0.0570
     35 C          -3.9554    1.4586   -2.2191 C.3     1  LIG1       -0.0556
     36 C          -5.2504   -1.5620    2.1922 C.2     1  LIG1        0.0449
     37 C           7.0344    0.7201   -1.6482 C.3     1  LIG1        0.2332
     38 C          -5.3964    1.0869   -1.9031 C.3     1  LIG1       -0.0653
     39 C          -1.6291   -5.5334   -3.1789 C.3     1  LIG1        0.0788
     40 H           1.8484   -1.2358    0.3832 H       1  LIG1        0.0379
     41 H          -0.8046   -0.5155    1.7051 H       1  LIG1        0.0419
     42 H           1.7820    1.1039    2.3397 H       1  LIG1        0.0404
     43 H           1.9643    3.4248    0.3329 H       1  LIG1        0.0622
     44 H           1.0228   -1.9952   -1.2270 H       1  LIG1        0.0622
     45 H           3.0163    0.9484   -1.2395 H       1  LIG1        0.0658
     46 H           0.1595    4.4304   -1.0581 H       1  LIG1        0.0636
     47 H           4.0087    0.3869    2.9388 H       1  LIG1        0.0622
     48 H          -4.0031   -0.8041    0.0743 H       1  LIG1        0.0319
     49 H          -2.8404   -0.4086    1.2908 H       1  LIG1        0.0319
     50 H          -3.7791   -3.1016   -1.0906 H       1  LIG1        0.0657
     51 H          -1.8908    3.0171   -2.9365 H       1  LIG1        0.0328
     52 H          -2.1101    4.3279   -1.7816 H       1  LIG1        0.0328
     53 H          -4.2469   -3.1470    1.2100 H       1  LIG1        0.0361
     54 H           0.1467   -3.6367   -2.7348 H       1  LIG1        0.0654
     55 H           6.4278    0.3185    2.3524 H       1  LIG1        0.0655
     56 H          -4.2569    3.5606   -1.9669 H       1  LIG1        0.0269
     57 H          -3.7336    2.7551   -0.4906 H       1  LIG1        0.0269
     58 H          -2.6260   -1.7565    3.3986 H       1  LIG1        0.0236
     59 H          -2.1508   -3.1959    2.4807 H       1  LIG1        0.0236
     60 H          -3.5292   -3.2667    3.5840 H       1  LIG1        0.0236
     61 H          -3.2995    0.6564   -1.8705 H       1  LIG1        0.0263
     62 H          -3.8326    1.5219   -3.3066 H       1  LIG1        0.0263
     63 H           7.5894    1.5856   -2.0278 H       1  LIG1        0.1166
     64 H           7.3992   -0.1787   -2.1596 H       1  LIG1        0.1166
     65 H          -5.5572    1.0198   -0.8223 H       1  LIG1        0.0230
     66 H          -5.6433    0.1164   -2.3445 H       1  LIG1        0.0230
     67 H          -6.0903    1.8309   -2.3071 H       1  LIG1        0.0230
     68 H          -2.2632   -6.3260   -3.5874 H       1  LIG1        0.0660
     69 H          -1.0912   -5.9485   -2.3187 H       1  LIG1        0.0660
     70 H          -0.9323   -5.2287   -3.9664 H       1  LIG1        0.0660
@<TRIPOS>BOND
     1     1    16   ar
     2     2    16   ar
     3     3    28    1
     4     3    37    1
     5     4    32    1
     6     4    37    1
     7     5    31    1
     8     5    39    1
     9     6    36   ar
    10     7    36   ar
    11     8    13   ar
    12     8    20   ar
    13     9    10    1
    14     9    11    1
    15     9    16    1
    16    10    13    1
    17    10    14    1
    18    11    12    1
    19    11    15    1
    20    12    13   ar
    21    12    17   ar
    22    14    18   ar
    23    14    19   ar
    24    15    21   ar
    25    15    23   ar
    26    17    22   ar
    27    18    24    1
    28    18    25   ar
    29    19    29   ar
    30    20    22   ar
    31    20    26    1
    32    21    28   ar
    33    23    30   ar
    34    24    27    1
    35    25    31   ar
    36    26    33    1
    37    27    34    1
    38    27    36    1
    39    28    32   ar
    40    29    31   ar
    41    30    32   ar
    42    33    35    1
    43    35    38    1
    44     9    40    1
    45    10    41    1
    46    11    42    1
    47    17    43    1
    48    19    44    1
    49    21    45    1
    50    22    46    1
    51    23    47    1
    52    24    48    1
    53    24    49    1
    54    25    50    1
    55    26    51    1
    56    26    52    1
    57    27    53    1
    58    29    54    1
    59    30    55    1
    60    33    56    1
    61    33    57    1
    62    34    58    1
    63    34    59    1
    64    34    60    1
    65    35    61    1
    66    35    62    1
    67    37    63    1
    68    37    64    1
    69    38    65    1
    70    38    66    1
    71    38    67    1
    72    39    68    1
    73    39    69    1
    74    39    70    1
@<TRIPOS>MOLECULE
3047752
 70 74 0 0 0
SMALL
GASTEIGER

@<TRIPOS>ATOM
      1 O           0.8347   -0.7860    3.4349 O.co2   1  LIG1       -0.5495
      2 O           1.8008   -2.5349    2.3409 O.co2   1  LIG1       -0.5495
      3 O           6.6579    1.1779    2.3124 O.3     1  LIG1       -0.4526
      4 O           7.3325    0.6879    0.0467 O.3     1  LIG1       -0.4526
      5 O          -2.4217   -4.6538   -2.7031 O.3     1  LIG1       -0.4951
      6 O          -5.5410    1.0400    1.1579 O.co2   1  LIG1       -0.5495
      7 O          -6.6829   -0.3214   -0.2680 O.co2   1  LIG1       -0.5495
      8 N          -1.0773    1.4604   -0.9021 N.ar    1  LIG1       -0.2556
      9 C           1.1640   -0.6569    1.0855 C.3     1  LIG1        0.0217
     10 C          -0.3149   -0.4541    0.6355 C.3     1  LIG1        0.0357
     11 C           1.8118    0.7337    1.2654 C.3     1  LIG1        0.0199
     12 C           0.9698    1.5750    0.3495 C.ar    1  LIG1       -0.0174
     13 C          -0.1718    0.9043   -0.0696 C.ar    1  LIG1        0.0534
     14 C          -0.9549   -1.5694   -0.2147 C.ar    1  LIG1       -0.0344
     15 C           3.2937    0.7315    0.8857 C.ar    1  LIG1       -0.0356
     16 C           1.2535   -1.3955    2.4126 C.2     1  LIG1        0.0466
     17 C           1.1918    2.8820   -0.0533 C.ar    1  LIG1       -0.0546
     18 C          -2.3279   -1.5644   -0.5823 C.ar    1  LIG1       -0.0395
     19 C          -0.1840   -2.6692   -0.6523 C.ar    1  LIG1       -0.0542
     20 C          -0.8707    2.7460   -1.2822 C.ar    1  LIG1        0.0416
     21 C           4.2654    0.9834    1.8682 C.ar    1  LIG1       -0.0124
     22 C           0.2542    3.4771   -0.8886 C.ar    1  LIG1       -0.0401
     23 C           3.7109    0.4486   -0.4420 C.ar    1  LIG1       -0.0543
     24 C          -3.3395   -0.5094   -0.1325 C.3     1  LIG1       -0.0196
     25 C          -2.8206   -2.5707   -1.4539 C.ar    1  LIG1       -0.0165
     26 C          -1.8820    3.3766   -2.2125 C.3     1  LIG1       -0.0104
     27 C          -4.5985   -1.0760    0.5494 C.3     1  LIG1       -0.0003
     28 C           5.5936    0.9529    1.4934 C.ar    1  LIG1        0.1665
     29 C          -0.7048   -3.6726   -1.4761 C.ar    1  LIG1       -0.0197
     30 C           5.0632    0.4196   -0.7911 C.ar    1  LIG1       -0.0159
     31 C          -2.0254   -3.6268   -1.8892 C.ar    1  LIG1        0.1204
     32 C           5.9802    0.6772    0.2013 C.ar    1  LIG1        0.1662
     33 C          -3.3310    3.0435   -1.8477 C.3     1  LIG1       -0.0479
     34 C          -4.3419   -1.4689    1.9977 C.3     1  LIG1       -0.0570
     35 C          -4.3609    3.8101   -2.6795 C.3     1  LIG1       -0.0556
     36 C          -5.7029   -0.0088    0.4727 C.2     1  LIG1        0.0449
     37 C           7.7490    0.9533    1.4005 C.3     1  LIG1        0.2332
     38 C          -4.3358    3.4393   -4.1545 C.3     1  LIG1       -0.0653
     39 C          -3.8268   -4.8016   -2.8665 C.3     1  LIG1        0.0788
     40 H           1.7381   -1.2009    0.3299 H       1  LIG1        0.0379
     41 H          -0.9449   -0.3123    1.5236 H       1  LIG1        0.0419
     42 H           1.6920    1.1392    2.2777 H       1  LIG1        0.0404
     43 H           2.0676    3.4259    0.2822 H       1  LIG1        0.0622
     44 H           0.8487   -2.7999   -0.3430 H       1  LIG1        0.0622
     45 H           3.9826    1.1748    2.8984 H       1  LIG1        0.0658
     46 H           0.3944    4.4999   -1.2181 H       1  LIG1        0.0636
     47 H           2.9641    0.2320   -1.2054 H       1  LIG1        0.0622
     48 H          -3.6305    0.0383   -1.0357 H       1  LIG1        0.0319
     49 H          -2.8807    0.2240    0.5360 H       1  LIG1        0.0319
     50 H          -3.8540   -2.4911   -1.7786 H       1  LIG1        0.0657
     51 H          -1.6531    3.0398   -3.2297 H       1  LIG1        0.0328
     52 H          -1.7600    4.4669   -2.1961 H       1  LIG1        0.0328
     53 H          -4.9715   -1.9634    0.0257 H       1  LIG1        0.0361
     54 H          -0.0657   -4.4959   -1.7791 H       1  LIG1        0.0654
     55 H           5.3730    0.1887   -1.8025 H       1  LIG1        0.0655
     56 H          -3.5031    3.2679   -0.7873 H       1  LIG1        0.0269
     57 H          -3.5067    1.9716   -1.9763 H       1  LIG1        0.0269
     58 H          -3.9145   -0.6430    2.5758 H       1  LIG1        0.0236
     59 H          -3.6479   -2.3140    2.0514 H       1  LIG1        0.0236
     60 H          -5.2747   -1.7693    2.4875 H       1  LIG1        0.0236
     61 H          -4.2059    4.8894   -2.5691 H       1  LIG1        0.0263
     62 H          -5.3593    3.5900   -2.2827 H       1  LIG1        0.0263
     63 H           8.3384    0.1012    1.7592 H       1  LIG1        0.1166
     64 H           8.3898    1.8425    1.3970 H       1  LIG1        0.1166
     65 H          -3.4013    3.7515   -4.6298 H       1  LIG1        0.0230
     66 H          -5.1580    3.9343   -4.6809 H       1  LIG1        0.0230
     67 H          -4.4490    2.3589   -4.2901 H       1  LIG1        0.0230
     68 H          -4.0003   -5.7352   -3.4107 H       1  LIG1        0.0660
     69 H          -4.2397   -3.9861   -3.4687 H       1  LIG1        0.0660
     70 H          -4.3373   -4.8827   -1.9006 H       1  LIG1        0.0660
@<TRIPOS>BOND
     1     1    16   ar
     2     2    16   ar
     3     3    28    1
     4     3    37    1
     5     4    32    1
     6     4    37    1
     7     5    31    1
     8     5    39    1
     9     6    36   ar
    10     7    36   ar
    11     8    13   ar
    12     8    20   ar
    13     9    10    1
    14     9    11    1
    15     9    16    1
    16    10    13    1
    17    10    14    1
    18    11    12    1
    19    11    15    1
    20    12    13   ar
    21    12    17   ar
    22    14    18   ar
    23    14    19   ar
    24    15    21   ar
    25    15    23   ar
    26    17    22   ar
    27    18    24    1
    28    18    25   ar
    29    19    29   ar
    30    20    22   ar
    31    20    26    1
    32    21    28   ar
    33    23    30   ar
    34    24    27    1
    35    25    31   ar
    36    26    33    1
    37    27    34    1
    38    27    36    1
    39    28    32   ar
    40    29    31   ar
    41    30    32   ar
    42    33    35    1
    43    35    38    1
    44     9    40    1
    45    10    41    1
    46    11    42    1
    47    17    43    1
    48    19    44    1
    49    21    45    1
    50    22    46    1
    51    23    47    1
    52    24    48    1
    53    24    49    1
    54    25    50    1
    55    26    51    1
    56    26    52    1
    57    27    53    1
    58    29    54    1
    59    30    55    1
    60    33    56    1
    61    33    57    1
    62    34    58    1
    63    34    59    1
    64    34    60    1
    65    35    61    1
    66    35    62    1
    67    37    63    1
    68    37    64    1
    69    38    65    1
    70    38    66    1
    71    38    67    1
    72    39    68    1
    73    39    69    1
    74    39    70    1
@<TRIPOS>MOLECULE
3047752
 70 74 0 0 0
SMALL
GASTEIGER

@<TRIPOS>ATOM
      1 O           1.1958   -2.7800    2.2575 O.co2   1  LIG1       -0.5495
      2 O           1.4658   -0.8725    3.4626 O.co2   1  LIG1       -0.5495
      3 O           5.5752    0.8686   -2.0101 O.3     1  LIG1       -0.4526
      4 O           7.2235    0.5059   -0.2831 O.3     1  LIG1       -0.4526
      5 O          -2.2346   -4.3843   -3.0464 O.3     1  LIG1       -0.4951
      6 O          -4.9647   -1.3364    3.0908 O.co2   1  LIG1       -0.5495
      7 O          -5.7889   -3.4455    3.2807 O.co2   1  LIG1       -0.5495
      8 N          -1.2548    1.4298   -0.6780 N.ar    1  LIG1       -0.2556
      9 C           1.1405   -0.7244    1.1096 C.3     1  LIG1        0.0217
     10 C          -0.3495   -0.5087    0.7237 C.3     1  LIG1        0.0357
     11 C           1.7870    0.6730    1.2554 C.3     1  LIG1        0.0199
     12 C           0.8921    1.5341    0.4105 C.ar    1  LIG1       -0.0174
     13 C          -0.2844    0.8801    0.0829 C.ar    1  LIG1        0.0534
     14 C          -0.9246   -1.5679   -0.2246 C.ar    1  LIG1       -0.0344
     15 C           3.2560    0.6489    0.8413 C.ar    1  LIG1       -0.0356
     16 C           1.2466   -1.5268    2.4056 C.2     1  LIG1        0.0466
     17 C           1.0807    2.8450   -0.0001 C.ar    1  LIG1       -0.0546
     18 C          -2.1057   -2.3057    0.0591 C.ar    1  LIG1       -0.0395
     19 C          -0.2664   -1.7902   -1.4577 C.ar    1  LIG1       -0.0542
     20 C          -1.0460    2.6961   -1.1119 C.ar    1  LIG1        0.0416
     21 C           3.6658    0.7845   -0.4980 C.ar    1  LIG1       -0.0124
     22 C           0.0942    3.4356   -0.7826 C.ar    1  LIG1       -0.0401
     23 C           4.2333    0.4169    1.8391 C.ar    1  LIG1       -0.0543
     24 C          -2.8984   -2.0824    1.3553 C.3     1  LIG1       -0.0196
     25 C          -2.5615   -3.2275   -0.9102 C.ar    1  LIG1       -0.0165
     26 C          -2.1374    3.3093   -1.9489 C.3     1  LIG1       -0.0104
     27 C          -4.0491   -3.0602    1.6964 C.3     1  LIG1       -0.0003
     28 C           5.0148    0.7327   -0.7771 C.ar    1  LIG1        0.1665
     29 C          -0.7284   -2.7260   -2.3804 C.ar    1  LIG1       -0.0197
     30 C           5.5948    0.3570    1.5246 C.ar    1  LIG1       -0.0159
     31 C          -1.8632   -3.4676   -2.0962 C.ar    1  LIG1        0.1204
     32 C           5.9534    0.5268    0.2074 C.ar    1  LIG1        0.1662
     33 C          -3.1173    4.1542   -1.1311 C.3     1  LIG1       -0.0479
     34 C          -3.5138   -4.4449    2.0813 C.3     1  LIG1       -0.0570
     35 C          -3.9433    3.3235   -0.1453 C.3     1  LIG1       -0.0556
     36 C          -5.0002   -2.5674    2.8142 C.2     1  LIG1        0.0449
     37 C           6.9685    0.7029   -1.6876 C.3     1  LIG1        0.2332
     38 C          -4.9553    4.1828    0.5946 C.3     1  LIG1       -0.0653
     39 C          -2.8542   -5.5508   -2.5099 C.3     1  LIG1        0.0788
     40 H           1.6701   -1.2959    0.3360 H       1  LIG1        0.0379
     41 H          -0.9603   -0.4057    1.6264 H       1  LIG1        0.0419
     42 H           1.7142    1.0871    2.2692 H       1  LIG1        0.0404
     43 H           1.9763    3.3900    0.2794 H       1  LIG1        0.0622
     44 H           0.6250   -1.2191   -1.7053 H       1  LIG1        0.0622
     45 H           2.9486    0.9175   -1.2999 H       1  LIG1        0.0658
     46 H           0.2102    4.4570   -1.1274 H       1  LIG1        0.0636
     47 H           3.9121    0.2539    2.8698 H       1  LIG1        0.0622
     48 H          -3.2986   -1.0629    1.2910 H       1  LIG1        0.0319
     49 H          -2.1924   -2.1062    2.1954 H       1  LIG1        0.0319
     50 H          -3.4828   -3.7669   -0.7325 H       1  LIG1        0.0657
     51 H          -2.6796    2.5149   -2.4780 H       1  LIG1        0.0328
     52 H          -1.6808    3.9332   -2.7274 H       1  LIG1        0.0328
     53 H          -4.7101   -3.1610    0.8266 H       1  LIG1        0.0361
     54 H          -0.1908   -2.8814   -3.3086 H       1  LIG1        0.0654
     55 H           6.3327    0.1658    2.2939 H       1  LIG1        0.0655
     56 H          -3.7976    4.6609   -1.8276 H       1  LIG1        0.0269
     57 H          -2.5764    4.9400   -0.5890 H       1  LIG1        0.0269
     58 H          -2.9931   -4.4125    3.0442 H       1  LIG1        0.0236
     59 H          -2.8151   -4.8391    1.3379 H       1  LIG1        0.0236
     60 H          -4.3263   -5.1745    2.1665 H       1  LIG1        0.0236
     61 H          -3.2895    2.8456    0.5921 H       1  LIG1        0.0263
     62 H          -4.4694    2.5253   -0.6810 H       1  LIG1        0.0263
     63 H           7.5103    1.5975   -2.0167 H       1  LIG1        0.1166
     64 H           7.3558   -0.1613   -2.2398 H       1  LIG1        0.1166
     65 H          -4.4565    4.9733    1.1627 H       1  LIG1        0.0230
     66 H          -5.5290    3.5694    1.2969 H       1  LIG1        0.0230
     67 H          -5.6587    4.6494   -0.1027 H       1  LIG1        0.0230
     68 H          -2.8420   -6.3199   -3.2881 H       1  LIG1        0.0660
     69 H          -3.9002   -5.3551   -2.2553 H       1  LIG1        0.0660
     70 H          -2.3050   -5.9443   -1.6470 H       1  LIG1        0.0660
@<TRIPOS>BOND
     1     1    16   ar
     2     2    16   ar
     3     3    28    1
     4     3    37    1
     5     4    32    1
     6     4    37    1
     7     5    31    1
     8     5    39    1
     9     6    36   ar
    10     7    36   ar
    11     8    13   ar
    12     8    20   ar
    13     9    10    1
    14     9    11    1
    15     9    16    1
    16    10    13    1
    17    10    14    1
    18    11    12    1
    19    11    15    1
    20    12    13   ar
    21    12    17   ar
    22    14    18   ar
    23    14    19   ar
    24    15    21   ar
    25    15    23   ar
    26    17    22   ar
    27    18    24    1
    28    18    25   ar
    29    19    29   ar
    30    20    22   ar
    31    20    26    1
    32    21    28   ar
    33    23    30   ar
    34    24    27    1
    35    25    31   ar
    36    26    33    1
    37    27    34    1
    38    27    36    1
    39    28    32   ar
    40    29    31   ar
    41    30    32   ar
    42    33    35    1
    43    35    38    1
    44     9    40    1
    45    10    41    1
    46    11    42    1
    47    17    43    1
    48    19    44    1
    49    21    45    1
    50    22    46    1
    51    23    47    1
    52    24    48    1
    53    24    49    1
    54    25    50    1
    55    26    51    1
    56    26    52    1
    57    27    53    1
    58    29    54    1
    59    30    55    1
    60    33    56    1
    61    33    57    1
    62    34    58    1
    63    34    59    1
    64    34    60    1
    65    35    61    1
    66    35    62    1
    67    37    63    1
    68    37    64    1
    69    38    65    1
    70    38    66    1
    71    38    67    1
    72    39    68    1
    73    39    69    1
    74    39    70    1
@<TRIPOS>MOLECULE
3047752
 70 74 0 0 0
SMALL
GASTEIGER

@<TRIPOS>ATOM
      1 O           0.8023   -0.7539    3.4378 O.co2   1  LIG1       -0.5495
      2 O           1.7970   -2.4969    2.3599 O.co2   1  LIG1       -0.5495
      3 O           6.6556    1.1814    2.3400 O.3     1  LIG1       -0.4526
      4 O           7.3361    0.6936    0.0756 O.3     1  LIG1       -0.4526
      5 O          -2.5872   -4.5194   -2.7189 O.3     1  LIG1       -0.4951
      6 O          -6.9109   -0.4679    0.7440 O.co2   1  LIG1       -0.5495
      7 O          -5.5626    1.2166    0.0296 O.co2   1  LIG1       -0.5495
      8 N          -1.0424    1.4767   -0.9318 N.ar    1  LIG1       -0.2556
      9 C           1.1566   -0.6269    1.0945 C.3     1  LIG1        0.0217
     10 C          -0.3202   -0.4175    0.6352 C.3     1  LIG1        0.0357
     11 C           1.8115    0.7623    1.2735 C.3     1  LIG1        0.0199
     12 C           0.9807    1.6036    0.3474 C.ar    1  LIG1       -0.0174
     13 C          -0.1534    0.9292   -0.0821 C.ar    1  LIG1        0.0534
     14 C          -0.9619   -1.5353   -0.2112 C.ar    1  LIG1       -0.0344
     15 C           3.2949    0.7510    0.9008 C.ar    1  LIG1       -0.0356
     16 C           1.2399   -1.3626    2.4226 C.2     1  LIG1        0.0466
     17 C           1.2025    2.9115   -0.0566 C.ar    1  LIG1       -0.0546
     18 C          -2.3092   -1.4945   -0.6634 C.ar    1  LIG1       -0.0395
     19 C          -0.2118   -2.6835   -0.5511 C.ar    1  LIG1       -0.0542
     20 C          -0.8332    2.7573   -1.3198 C.ar    1  LIG1        0.0416
     21 C           4.2640    0.9969    1.8872 C.ar    1  LIG1       -0.0124
     22 C           0.2713    3.5030   -0.9031 C.ar    1  LIG1       -0.0401
     23 C           3.7158    0.4682   -0.4258 C.ar    1  LIG1       -0.0543
     24 C          -3.3263   -0.4169   -0.2739 C.3     1  LIG1       -0.0196
     25 C          -2.7711   -2.5066   -1.5426 C.ar    1  LIG1       -0.0165
     26 C          -1.8935    3.3736   -2.1966 C.3     1  LIG1       -0.0104
     27 C          -4.6226   -0.9675    0.3598 C.3     1  LIG1       -0.0003
     28 C           5.5933    0.9616    1.5170 C.ar    1  LIG1        0.1665
     29 C          -0.7110   -3.7002   -1.3729 C.ar    1  LIG1       -0.0197
     30 C           5.0690    0.4346   -0.7705 C.ar    1  LIG1       -0.0159
     31 C          -1.9924   -3.6086   -1.8878 C.ar    1  LIG1        0.1204
     32 C           5.9834    0.6868    0.2257 C.ar    1  LIG1        0.1662
     33 C          -3.1687    3.6606   -1.4002 C.3     1  LIG1       -0.0479
     34 C          -4.3759   -1.4507    1.7889 C.3     1  LIG1       -0.0570
     35 C          -4.3064    4.2113   -2.2609 C.3     1  LIG1       -0.0556
     36 C          -5.7980    0.0311    0.3920 C.2     1  LIG1        0.0449
     37 C           7.7491    0.9576    1.4307 C.3     1  LIG1        0.2332
     38 C          -4.0596    5.6325   -2.7417 C.3     1  LIG1       -0.0653
     39 C          -1.9725   -5.7992   -2.7733 C.3     1  LIG1        0.0788
     40 H           1.7272   -1.1747    0.3375 H       1  LIG1        0.0379
     41 H          -0.9590   -0.2609    1.5145 H       1  LIG1        0.0419
     42 H           1.6871    1.1716    2.2836 H       1  LIG1        0.0404
     43 H           2.0689    3.4615    0.2931 H       1  LIG1        0.0622
     44 H           0.7907   -2.8396   -0.1612 H       1  LIG1        0.0622
     45 H           3.9782    1.1884    2.9167 H       1  LIG1        0.0658
     46 H           0.3979    4.5315   -1.2194 H       1  LIG1        0.0636
     47 H           2.9709    0.2570   -1.1927 H       1  LIG1        0.0622
     48 H          -3.5626    0.1403   -1.1899 H       1  LIG1        0.0319
     49 H          -2.8903    0.3040    0.4233 H       1  LIG1        0.0319
     50 H          -3.7800   -2.4411   -1.9450 H       1  LIG1        0.0657
     51 H          -2.1099    2.6802   -3.0184 H       1  LIG1        0.0328
     52 H          -1.5084    4.2919   -2.6538 H       1  LIG1        0.0328
     53 H          -4.9946   -1.8187   -0.2230 H       1  LIG1        0.0361
     54 H          -0.0587   -4.5383   -1.5856 H       1  LIG1        0.0654
     55 H           5.3814    0.2055   -1.7814 H       1  LIG1        0.0655
     56 H          -2.9537    4.3548   -0.5780 H       1  LIG1        0.0269
     57 H          -3.5161    2.7319   -0.9331 H       1  LIG1        0.0269
     58 H          -4.0316   -0.6318    2.4298 H       1  LIG1        0.0236
     59 H          -3.6190   -2.2417    1.8110 H       1  LIG1        0.0236
     60 H          -5.2867   -1.8611    2.2382 H       1  LIG1        0.0236
     61 H          -5.2281    4.2021   -1.6668 H       1  LIG1        0.0263
     62 H          -4.4783    3.5554   -3.1222 H       1  LIG1        0.0263
     63 H           8.3374    0.1049    1.7900 H       1  LIG1        0.1166
     64 H           8.3901    1.8467    1.4298 H       1  LIG1        0.1166
     65 H          -3.8808    6.3058   -1.8972 H       1  LIG1        0.0230
     66 H          -4.9338    6.0011   -3.2879 H       1  LIG1        0.0230
     67 H          -3.1994    5.6863   -3.4150 H       1  LIG1        0.0230
     68 H          -2.6290   -6.4610   -3.3465 H       1  LIG1        0.0660
     69 H          -1.8568   -6.2325   -1.7737 H       1  LIG1        0.0660
     70 H          -1.0121   -5.7518   -3.2969 H       1  LIG1        0.0660
@<TRIPOS>BOND
     1     1    16   ar
     2     2    16   ar
     3     3    28    1
     4     3    37    1
     5     4    32    1
     6     4    37    1
     7     5    31    1
     8     5    39    1
     9     6    36   ar
    10     7    36   ar
    11     8    13   ar
    12     8    20   ar
    13     9    10    1
    14     9    11    1
    15     9    16    1
    16    10    13    1
    17    10    14    1
    18    11    12    1
    19    11    15    1
    20    12    13   ar
    21    12    17   ar
    22    14    18   ar
    23    14    19   ar
    24    15    21   ar
    25    15    23   ar
    26    17    22   ar
    27    18    24    1
    28    18    25   ar
    29    19    29   ar
    30    20    22   ar
    31    20    26    1
    32    21    28   ar
    33    23    30   ar
    34    24    27    1
    35    25    31   ar
    36    26    33    1
    37    27    34    1
    38    27    36    1
    39    28    32   ar
    40    29    31   ar
    41    30    32   ar
    42    33    35    1
    43    35    38    1
    44     9    40    1
    45    10    41    1
    46    11    42    1
    47    17    43    1
    48    19    44    1
    49    21    45    1
    50    22    46    1
    51    23    47    1
    52    24    48    1
    53    24    49    1
    54    25    50    1
    55    26    51    1
    56    26    52    1
    57    27    53    1
    58    29    54    1
    59    30    55    1
    60    33    56    1
    61    33    57    1
    62    34    58    1
    63    34    59    1
    64    34    60    1
    65    35    61    1
    66    35    62    1
    67    37    63    1
    68    37    64    1
    69    38    65    1
    70    38    66    1
    71    38    67    1
    72    39    68    1
    73    39    69    1
    74    39    70    1
@<TRIPOS>MOLECULE
3047752
 70 74 0 0 0
SMALL
GASTEIGER

@<TRIPOS>ATOM
      1 O           0.8281   -0.7788    3.4688 O.co2   1  LIG1       -0.5495
      2 O           2.0588   -2.4099    2.4655 O.co2   1  LIG1       -0.5495
      3 O           5.5898    0.8398   -2.0179 O.3     1  LIG1       -0.4526
      4 O           7.2372    0.5085   -0.2841 O.3     1  LIG1       -0.4526
      5 O          -2.0649   -4.4632   -3.0222 O.3     1  LIG1       -0.4951
      6 O          -6.0839   -3.3637    2.8361 O.co2   1  LIG1       -0.5495
      7 O          -4.9729   -1.3965    3.1033 O.co2   1  LIG1       -0.5495
      8 N          -1.2602    1.4368   -0.6603 N.ar    1  LIG1       -0.2556
      9 C           1.1464   -0.7090    1.1198 C.3     1  LIG1        0.0217
     10 C          -0.3432   -0.4942    0.7358 C.3     1  LIG1        0.0357
     11 C           1.7999    0.6889    1.2538 C.3     1  LIG1        0.0199
     12 C           0.8972    1.5480    0.4120 C.ar    1  LIG1       -0.0174
     13 C          -0.2820    0.8913    0.0933 C.ar    1  LIG1        0.0534
     14 C          -0.8934   -1.5696   -0.2116 C.ar    1  LIG1       -0.0344
     15 C           3.2686    0.6671    0.8366 C.ar    1  LIG1       -0.0356
     16 C           1.3295   -1.3755    2.4764 C.2     1  LIG1        0.0466
     17 C           1.0787    2.8574   -0.0019 C.ar    1  LIG1       -0.0546
     18 C          -2.0657   -2.3257    0.0583 C.ar    1  LIG1       -0.0395
     19 C          -0.2096   -1.7955   -1.4303 C.ar    1  LIG1       -0.0542
     20 C          -1.0595    2.7029   -1.0954 C.ar    1  LIG1        0.0416
     21 C           3.6784    0.7846   -0.5041 C.ar    1  LIG1       -0.0124
     22 C           0.0816    3.4453   -0.7751 C.ar    1  LIG1       -0.0401
     23 C           4.2479    0.4527    1.8375 C.ar    1  LIG1       -0.0543
     24 C          -2.9226   -2.0641    1.3077 C.3     1  LIG1       -0.0196
     25 C          -2.4670   -3.2911   -0.8957 C.ar    1  LIG1       -0.0165
     26 C          -2.1486    3.3043   -1.9438 C.3     1  LIG1       -0.0104
     27 C          -4.0594   -3.0596    1.6368 C.3     1  LIG1       -0.0003
     28 C           5.0284    0.7282   -0.7823 C.ar    1  LIG1        0.1665
     29 C          -0.6300   -2.7584   -2.3448 C.ar    1  LIG1       -0.0197
     30 C           5.6093    0.3920    1.5254 C.ar    1  LIG1       -0.0159
     31 C          -1.7477   -3.5293   -2.0700 C.ar    1  LIG1        0.1204
     32 C           5.9675    0.5399    0.2048 C.ar    1  LIG1        0.1662
     33 C          -3.1739    4.1096   -1.1401 C.3     1  LIG1       -0.0479
     34 C          -3.5035   -4.3732    2.1954 C.3     1  LIG1       -0.0570
     35 C          -4.0032    3.3029   -0.1351 C.3     1  LIG1       -0.0556
     36 C          -5.1227   -2.5574    2.6369 C.2     1  LIG1        0.0449
     37 C           6.9813    0.6613   -1.6941 C.3     1  LIG1        0.2332
     38 C          -4.8277    2.1948   -0.7725 C.3     1  LIG1       -0.0653
     39 C          -2.8930   -5.5305   -2.5733 C.3     1  LIG1        0.0788
     40 H           1.6751   -1.3056    0.3646 H       1  LIG1        0.0379
     41 H          -0.9654   -0.3984    1.6298 H       1  LIG1        0.0419
     42 H           1.7388    1.1003    2.2701 H       1  LIG1        0.0404
     43 H           1.9741    3.4061    0.2684 H       1  LIG1        0.0622
     44 H           0.6702   -1.2045   -1.6750 H       1  LIG1        0.0622
     45 H           2.9601    0.9034   -1.3081 H       1  LIG1        0.0658
     46 H           0.1943    4.4653   -1.1233 H       1  LIG1        0.0636
     47 H           3.9296    0.2967    2.8695 H       1  LIG1        0.0622
     48 H          -3.3528   -1.0630    1.1767 H       1  LIG1        0.0319
     49 H          -2.2572   -2.0249    2.1793 H       1  LIG1        0.0319
     50 H          -3.3685   -3.8612   -0.7161 H       1  LIG1        0.0657
     51 H          -2.6443    2.5112   -2.5158 H       1  LIG1        0.0328
     52 H          -1.6893    3.9612   -2.6941 H       1  LIG1        0.0328
     53 H          -4.6428   -3.2659    0.7321 H       1  LIG1        0.0361
     54 H          -0.0735   -2.9090   -3.2632 H       1  LIG1        0.0654
     55 H           6.3471    0.2106    2.2962 H       1  LIG1        0.0655
     56 H          -3.8580    4.5973   -1.8463 H       1  LIG1        0.0269
     57 H          -2.6626    4.9157   -0.5988 H       1  LIG1        0.0269
     58 H          -3.0412   -4.2196    3.1771 H       1  LIG1        0.0236
     59 H          -2.7482   -4.8086    1.5339 H       1  LIG1        0.0236
     60 H          -4.2926   -5.1238    2.3170 H       1  LIG1        0.0236
     61 H          -4.6856    3.9924    0.3762 H       1  LIG1        0.0263
     62 H          -3.3562    2.8777    0.6401 H       1  LIG1        0.0263
     63 H           7.5375    1.5340   -2.0553 H       1  LIG1        0.1166
     64 H           7.3524   -0.2283   -2.2167 H       1  LIG1        0.1166
     65 H          -5.4613    2.5877   -1.5738 H       1  LIG1        0.0230
     66 H          -5.4771    1.7319   -0.0227 H       1  LIG1        0.0230
     67 H          -4.1925    1.4072   -1.1880 H       1  LIG1        0.0230
     68 H          -2.8928   -6.3001   -3.3512 H       1  LIG1        0.0660
     69 H          -3.9264   -5.1951   -2.4406 H       1  LIG1        0.0660
     70 H          -2.5025   -5.9872   -1.6569 H       1  LIG1        0.0660
@<TRIPOS>BOND
     1     1    16   ar
     2     2    16   ar
     3     3    28    1
     4     3    37    1
     5     4    32    1
     6     4    37    1
     7     5    31    1
     8     5    39    1
     9     6    36   ar
    10     7    36   ar
    11     8    13   ar
    12     8    20   ar
    13     9    10    1
    14     9    11    1
    15     9    16    1
    16    10    13    1
    17    10    14    1
    18    11    12    1
    19    11    15    1
    20    12    13   ar
    21    12    17   ar
    22    14    18   ar
    23    14    19   ar
    24    15    21   ar
    25    15    23   ar
    26    17    22   ar
    27    18    24    1
    28    18    25   ar
    29    19    29   ar
    30    20    22   ar
    31    20    26    1
    32    21    28   ar
    33    23    30   ar
    34    24    27    1
    35    25    31   ar
    36    26    33    1
    37    27    34    1
    38    27    36    1
    39    28    32   ar
    40    29    31   ar
    41    30    32   ar
    42    33    35    1
    43    35    38    1
    44     9    40    1
    45    10    41    1
    46    11    42    1
    47    17    43    1
    48    19    44    1
    49    21    45    1
    50    22    46    1
    51    23    47    1
    52    24    48    1
    53    24    49    1
    54    25    50    1
    55    26    51    1
    56    26    52    1
    57    27    53    1
    58    29    54    1
    59    30    55    1
    60    33    56    1
    61    33    57    1
    62    34    58    1
    63    34    59    1
    64    34    60    1
    65    35    61    1
    66    35    62    1
    67    37    63    1
    68    37    64    1
    69    38    65    1
    70    38    66    1
    71    38    67    1
    72    39    68    1
    73    39    69    1
    74    39    70    1
@<TRIPOS>MOLECULE
3047752
 70 74 0 0 0
SMALL
GASTEIGER

@<TRIPOS>ATOM
      1 O           1.9463   -2.1741    2.8791 O.co2   1  LIG1       -0.5495
      2 O           0.4135   -0.6102    3.5021 O.co2   1  LIG1       -0.5495
      3 O           6.5282    1.9804    1.7867 O.3     1  LIG1       -0.4526
      4 O           7.2547    0.7790   -0.1778 O.3     1  LIG1       -0.4526
      5 O          -2.2284   -4.5357   -2.9562 O.3     1  LIG1       -0.4951
      6 O          -5.8532   -1.6647    0.5771 O.co2   1  LIG1       -0.5495
      7 O          -5.9545   -3.9241    0.2951 O.co2   1  LIG1       -0.5495
      8 N          -1.2263    1.4135   -0.7121 N.ar    1  LIG1       -0.2556
      9 C           1.0530   -0.7669    1.2200 C.3     1  LIG1        0.0217
     10 C          -0.3976   -0.5224    0.7136 C.3     1  LIG1        0.0357
     11 C           1.7881    0.6020    1.2492 C.3     1  LIG1        0.0199
     12 C           0.9419    1.4500    0.3383 C.ar    1  LIG1       -0.0174
     13 C          -0.2645    0.8391    0.0404 C.ar    1  LIG1        0.0534
     14 C          -0.9075   -1.6106   -0.2457 C.ar    1  LIG1       -0.0344
     15 C           3.2563    0.5761    0.8321 C.ar    1  LIG1       -0.0356
     16 C           1.1187   -1.2408    2.6666 C.2     1  LIG1        0.0466
     17 C           1.1881    2.7294   -0.1327 C.ar    1  LIG1       -0.0546
     18 C          -2.1087   -2.3387   -0.0290 C.ar    1  LIG1       -0.0395
     19 C          -0.1643   -1.8774   -1.4165 C.ar    1  LIG1       -0.0542
     20 C          -0.9798    2.6605   -1.1751 C.ar    1  LIG1        0.0416
     21 C           4.1933    1.3023    1.5917 C.ar    1  LIG1       -0.0124
     22 C           0.2079    3.3468   -0.9051 C.ar    1  LIG1       -0.0401
     23 C           3.6985   -0.1094   -0.3246 C.ar    1  LIG1       -0.0543
     24 C          -2.9909   -2.0589    1.1861 C.3     1  LIG1       -0.0196
     25 C          -2.4919   -3.3018   -0.9880 C.ar    1  LIG1       -0.0165
     26 C          -2.0791    3.3101   -1.9729 C.3     1  LIG1       -0.0104
     27 C          -4.1312   -3.0384    1.5156 C.3     1  LIG1       -0.0003
     28 C           5.5088    1.3146    1.1779 C.ar    1  LIG1        0.1665
     29 C          -0.5618   -2.8420   -2.3432 C.ar    1  LIG1       -0.0197
     30 C           5.0422   -0.0896   -0.7145 C.ar    1  LIG1       -0.0159
     31 C          -1.7293   -3.5626   -2.1316 C.ar    1  LIG1        0.1204
     32 C           5.9221    0.6349    0.0569 C.ar    1  LIG1        0.1662
     33 C          -3.0226    4.1637   -1.1198 C.3     1  LIG1       -0.0479
     34 C          -4.5879   -2.8527    2.9671 C.3     1  LIG1       -0.0570
     35 C          -3.8826    3.3348   -0.1602 C.3     1  LIG1       -0.0556
     36 C          -5.4263   -2.8462    0.7054 C.2     1  LIG1        0.0449
     37 C           7.6321    1.6045    0.9417 C.3     1  LIG1        0.2332
     38 C          -4.8936    4.2028    0.5730 C.3     1  LIG1       -0.0653
     39 C          -1.5423   -4.7505   -4.1784 C.3     1  LIG1        0.0788
     40 H           1.5736   -1.5052    0.6002 H       1  LIG1        0.0379
     41 H          -1.0890   -0.3821    1.5481 H       1  LIG1        0.0419
     42 H           1.7246    1.0654    2.2436 H       1  LIG1        0.0404
     43 H           2.1113    3.2439    0.1096 H       1  LIG1        0.0622
     44 H           0.7397   -1.3105   -1.6207 H       1  LIG1        0.0622
     45 H           3.8923    1.8395    2.4856 H       1  LIG1        0.0658
     46 H           0.3621    4.3525   -1.2782 H       1  LIG1        0.0636
     47 H           2.9878   -0.6694   -0.9279 H       1  LIG1        0.0622
     48 H          -3.3889   -1.0425    1.0772 H       1  LIG1        0.0319
     49 H          -2.3213   -2.0605    2.0557 H       1  LIG1        0.0319
     50 H          -3.4159   -3.8637   -0.8627 H       1  LIG1        0.0657
     51 H          -2.6498    2.5359   -2.5006 H       1  LIG1        0.0328
     52 H          -1.6288    3.9379   -2.7515 H       1  LIG1        0.0328
     53 H          -3.7794   -4.0725    1.4112 H       1  LIG1        0.0361
     54 H           0.0606   -2.9957   -3.2147 H       1  LIG1        0.0654
     55 H           5.3748   -0.6289   -1.5929 H       1  LIG1        0.0655
     56 H          -3.6840    4.7194   -1.7962 H       1  LIG1        0.0269
     57 H          -2.4516    4.9085   -0.5517 H       1  LIG1        0.0269
     58 H          -4.8970   -1.8199    3.1659 H       1  LIG1        0.0236
     59 H          -3.7753   -3.0971    3.6603 H       1  LIG1        0.0236
     60 H          -5.4341   -3.5069    3.2074 H       1  LIG1        0.0236
     61 H          -3.2503    2.8329    0.5803 H       1  LIG1        0.0263
     62 H          -4.4161    2.5550   -0.7164 H       1  LIG1        0.0263
     63 H           8.3687    1.0618    1.5465 H       1  LIG1        0.1166
     64 H           8.1027    2.5169    0.5571 H       1  LIG1        0.1166
     65 H          -4.3917    4.9771    1.1615 H       1  LIG1        0.0230
     66 H          -5.4923    3.5915    1.2549 H       1  LIG1        0.0230
     67 H          -5.5743    4.6916   -0.1309 H       1  LIG1        0.0230
     68 H          -2.0817   -5.5239   -4.7339 H       1  LIG1        0.0660
     69 H          -0.5259   -5.1185   -4.0029 H       1  LIG1        0.0660
     70 H          -1.5343   -3.8449   -4.7945 H       1  LIG1        0.0660
@<TRIPOS>BOND
     1     1    16   ar
     2     2    16   ar
     3     3    28    1
     4     3    37    1
     5     4    32    1
     6     4    37    1
     7     5    31    1
     8     5    39    1
     9     6    36   ar
    10     7    36   ar
    11     8    13   ar
    12     8    20   ar
    13     9    10    1
    14     9    11    1
    15     9    16    1
    16    10    13    1
    17    10    14    1
    18    11    12    1
    19    11    15    1
    20    12    13   ar
    21    12    17   ar
    22    14    18   ar
    23    14    19   ar
    24    15    21   ar
    25    15    23   ar
    26    17    22   ar
    27    18    24    1
    28    18    25   ar
    29    19    29   ar
    30    20    22   ar
    31    20    26    1
    32    21    28   ar
    33    23    30   ar
    34    24    27    1
    35    25    31   ar
    36    26    33    1
    37    27    34    1
    38    27    36    1
    39    28    32   ar
    40    29    31   ar
    41    30    32   ar
    42    33    35    1
    43    35    38    1
    44     9    40    1
    45    10    41    1
    46    11    42    1
    47    17    43    1
    48    19    44    1
    49    21    45    1
    50    22    46    1
    51    23    47    1
    52    24    48    1
    53    24    49    1
    54    25    50    1
    55    26    51    1
    56    26    52    1
    57    27    53    1
    58    29    54    1
    59    30    55    1
    60    33    56    1
    61    33    57    1
    62    34    58    1
    63    34    59    1
    64    34    60    1
    65    35    61    1
    66    35    62    1
    67    37    63    1
    68    37    64    1
    69    38    65    1
    70    38    66    1
    71    38    67    1
    72    39    68    1
    73    39    69    1
    74    39    70    1
@<TRIPOS>MOLECULE
3047752
 70 74 0 0 0
SMALL
GASTEIGER

@<TRIPOS>ATOM
      1 O           1.8508   -2.6376    2.2835 O.co2   1  LIG1       -0.5495
      2 O           0.9027   -0.9232    3.4447 O.co2   1  LIG1       -0.5495
      3 O           6.6255    0.2599    2.3109 O.3     1  LIG1       -0.4526
      4 O           7.2745    0.4072   -0.0086 O.3     1  LIG1       -0.4526
      5 O          -2.1805   -4.3857   -3.0728 O.3     1  LIG1       -0.4951
      6 O          -5.4446   -1.3620    2.5022 O.co2   1  LIG1       -0.5495
      7 O          -5.4735   -3.3622    3.5807 O.co2   1  LIG1       -0.5495
      8 N          -1.2373    1.4707   -0.6466 N.ar    1  LIG1       -0.2556
      9 C           1.1256   -0.7452    1.0913 C.3     1  LIG1        0.0217
     10 C          -0.3632   -0.5031    0.7251 C.3     1  LIG1        0.0357
     11 C           1.7834    0.6409    1.2964 C.3     1  LIG1        0.0199
     12 C           0.8951    1.5375    0.4781 C.ar    1  LIG1       -0.0174
     13 C          -0.2827    0.8986    0.1180 C.ar    1  LIG1        0.0534
     14 C          -0.9379   -1.5509   -0.2362 C.ar    1  LIG1       -0.0344
     15 C           3.2519    0.6290    0.8791 C.ar    1  LIG1       -0.0356
     16 C           1.2782   -1.5153    2.3949 C.2     1  LIG1        0.0466
     17 C           1.0969    2.8560    0.1062 C.ar    1  LIG1       -0.0546
     18 C          -2.1027   -2.3143    0.0466 C.ar    1  LIG1       -0.0395
     19 C          -0.2831   -1.7491   -1.4751 C.ar    1  LIG1       -0.0542
     20 C          -1.0144    2.7460   -1.0444 C.ar    1  LIG1        0.0416
     21 C           4.2347    0.4722    1.8729 C.ar    1  LIG1       -0.0124
     22 C           0.1240    3.4707   -0.6750 C.ar    1  LIG1       -0.0401
     23 C           3.6497    0.6977   -0.4798 C.ar    1  LIG1       -0.0543
     24 C          -2.9176   -2.0934    1.3311 C.3     1  LIG1       -0.0196
     25 C          -2.5329   -3.2512   -0.9216 C.ar    1  LIG1       -0.0165
     26 C          -2.0431    3.3569   -1.9602 C.3     1  LIG1       -0.0104
     27 C          -4.0389   -3.1050    1.6784 C.3     1  LIG1       -0.0003
     28 C           5.5559    0.4130    1.4832 C.ar    1  LIG1        0.1665
     29 C          -0.7255   -2.6919   -2.3999 C.ar    1  LIG1       -0.0197
     30 C           4.9983    0.6435   -0.8451 C.ar    1  LIG1       -0.0159
     31 C          -1.8374   -3.4672   -2.1143 C.ar    1  LIG1        0.1204
     32 C           5.9266    0.4982    0.1611 C.ar    1  LIG1        0.1662
     33 C          -1.8456    2.9652   -3.4301 C.3     1  LIG1       -0.0479
     34 C          -3.4533   -4.4440    2.1353 C.3     1  LIG1       -0.0570
     35 C          -0.5835    3.5683   -4.0545 C.3     1  LIG1       -0.0556
     36 C          -5.0533   -2.5474    2.7069 C.2     1  LIG1        0.0449
     37 C           7.6930    0.1694    1.3511 C.3     1  LIG1        0.2332
     38 C          -0.4910    3.2584   -5.5407 C.3     1  LIG1       -0.0653
     39 C          -2.8975   -5.5149   -2.5841 C.3     1  LIG1        0.0788
     40 H           1.6475   -1.2979    0.2988 H       1  LIG1        0.0379
     41 H          -0.9740   -0.4155    1.6285 H       1  LIG1        0.0419
     42 H           1.7149    1.0090    2.3281 H       1  LIG1        0.0404
     43 H           1.9934    3.3868    0.4062 H       1  LIG1        0.0622
     44 H           0.5924   -1.1549   -1.7253 H       1  LIG1        0.0622
     45 H           3.9577    0.3627    2.9183 H       1  LIG1        0.0658
     46 H           0.2590    4.4947   -1.0036 H       1  LIG1        0.0636
     47 H           2.8956    0.7744   -1.2610 H       1  LIG1        0.0622
     48 H          -3.3409   -1.0849    1.2496 H       1  LIG1        0.0319
     49 H          -2.2210   -2.0830    2.1792 H       1  LIG1        0.0319
     50 H          -3.4364   -3.8176   -0.7389 H       1  LIG1        0.0657
     51 H          -2.0482    4.4484   -1.8531 H       1  LIG1        0.0328
     52 H          -3.0340    3.0149   -1.6356 H       1  LIG1        0.0328
     53 H          -4.6664   -3.2822    0.7968 H       1  LIG1        0.0361
     54 H          -0.1896   -2.8265   -3.3326 H       1  LIG1        0.0654
     55 H           5.2977    0.6907   -1.8844 H       1  LIG1        0.0655
     56 H          -2.7199    3.3118   -3.9953 H       1  LIG1        0.0269
     57 H          -1.8169    1.8727   -3.5283 H       1  LIG1        0.0269
     58 H          -2.9163   -4.3369    3.0843 H       1  LIG1        0.0236
     59 H          -2.7558   -4.8583    1.4016 H       1  LIG1        0.0236
     60 H          -4.2432   -5.1893    2.2817 H       1  LIG1        0.0236
     61 H           0.3112    3.1723   -3.5621 H       1  LIG1        0.0263
     62 H          -0.5803    4.6554   -3.9142 H       1  LIG1        0.0263
     63 H           8.1384   -0.8311    1.4111 H       1  LIG1        0.1166
     64 H           8.4597    0.9074    1.6118 H       1  LIG1        0.1166
     65 H          -0.4663    2.1781   -5.7156 H       1  LIG1        0.0230
     66 H           0.4226    3.6912   -5.9608 H       1  LIG1        0.0230
     67 H          -1.3446    3.6766   -6.0832 H       1  LIG1        0.0230
     68 H          -2.8863   -6.2792   -3.3674 H       1  LIG1        0.0660
     69 H          -3.9432   -5.2583   -2.3876 H       1  LIG1        0.0660
     70 H          -2.4216   -5.9456   -1.6957 H       1  LIG1        0.0660
@<TRIPOS>BOND
     1     1    16   ar
     2     2    16   ar
     3     3    28    1
     4     3    37    1
     5     4    32    1
     6     4    37    1
     7     5    31    1
     8     5    39    1
     9     6    36   ar
    10     7    36   ar
    11     8    13   ar
    12     8    20   ar
    13     9    10    1
    14     9    11    1
    15     9    16    1
    16    10    13    1
    17    10    14    1
    18    11    12    1
    19    11    15    1
    20    12    13   ar
    21    12    17   ar
    22    14    18   ar
    23    14    19   ar
    24    15    21   ar
    25    15    23   ar
    26    17    22   ar
    27    18    24    1
    28    18    25   ar
    29    19    29   ar
    30    20    22   ar
    31    20    26    1
    32    21    28   ar
    33    23    30   ar
    34    24    27    1
    35    25    31   ar
    36    26    33    1
    37    27    34    1
    38    27    36    1
    39    28    32   ar
    40    29    31   ar
    41    30    32   ar
    42    33    35    1
    43    35    38    1
    44     9    40    1
    45    10    41    1
    46    11    42    1
    47    17    43    1
    48    19    44    1
    49    21    45    1
    50    22    46    1
    51    23    47    1
    52    24    48    1
    53    24    49    1
    54    25    50    1
    55    26    51    1
    56    26    52    1
    57    27    53    1
    58    29    54    1
    59    30    55    1
    60    33    56    1
    61    33    57    1
    62    34    58    1
    63    34    59    1
    64    34    60    1
    65    35    61    1
    66    35    62    1
    67    37    63    1
    68    37    64    1
    69    38    65    1
    70    38    66    1
    71    38    67    1
    72    39    68    1
    73    39    69    1
    74    39    70    1
@<TRIPOS>MOLECULE
3047752
 70 74 0 0 0
SMALL
GASTEIGER

@<TRIPOS>ATOM
      1 O           0.3339   -0.5911    3.5372 O.co2   1  LIG1       -0.5495
      2 O           1.9908   -2.0433    2.9645 O.co2   1  LIG1       -0.5495
      3 O           6.5119    2.0543    1.6882 O.3     1  LIG1       -0.4526
      4 O           7.2458    0.7073   -0.1763 O.3     1  LIG1       -0.4526
      5 O          -2.1607   -4.3882   -3.0588 O.3     1  LIG1       -0.4951
      6 O          -5.7918   -3.9974    0.2180 O.co2   1  LIG1       -0.5495
      7 O          -5.8916   -1.7427    0.5388 O.co2   1  LIG1       -0.5495
      8 N          -1.2470    1.4775   -0.6522 N.ar    1  LIG1       -0.2556
      9 C           1.0159   -0.7400    1.2658 C.3     1  LIG1        0.0217
     10 C          -0.4307   -0.4732    0.7622 C.3     1  LIG1        0.0357
     11 C           1.7806    0.6129    1.2673 C.3     1  LIG1        0.0199
     12 C           0.9454    1.4655    0.3509 C.ar    1  LIG1       -0.0174
     13 C          -0.2839    0.8854    0.0857 C.ar    1  LIG1        0.0534
     14 C          -0.9495   -1.5607   -0.1941 C.ar    1  LIG1       -0.0344
     15 C           3.2475    0.5610    0.8455 C.ar    1  LIG1       -0.0356
     16 C           1.0973   -1.1802    2.7227 C.2     1  LIG1        0.0466
     17 C           1.2206    2.7264   -0.1536 C.ar    1  LIG1       -0.0546
     18 C          -2.1338   -2.3052    0.0512 C.ar    1  LIG1       -0.0395
     19 C          -0.2307   -1.8166   -1.3843 C.ar    1  LIG1       -0.0542
     20 C          -0.9669    2.7024   -1.1559 C.ar    1  LIG1        0.0416
     21 C           4.1817    1.3501    1.5468 C.ar    1  LIG1       -0.0124
     22 C           0.2491    3.3530   -0.9296 C.ar    1  LIG1       -0.0401
     23 C           3.6924   -0.2064   -0.2550 C.ar    1  LIG1       -0.0543
     24 C          -3.0035   -2.0317    1.2769 C.3     1  LIG1       -0.0196
     25 C          -2.5287   -3.2736   -0.8971 C.ar    1  LIG1       -0.0165
     26 C          -2.0479    3.3562   -1.9787 C.3     1  LIG1       -0.0104
     27 C          -4.1554   -3.0001    1.6081 C.3     1  LIG1       -0.0003
     28 C           5.4962    1.3381    1.1326 C.ar    1  LIG1        0.1665
     29 C          -0.6535   -2.7722   -2.3072 C.ar    1  LIG1       -0.0197
     30 C           5.0369   -0.2102   -0.6454 C.ar    1  LIG1       -0.0159
     31 C          -1.8139   -3.4965   -2.0762 C.ar    1  LIG1        0.1204
     32 C           5.9134    0.5760    0.0683 C.ar    1  LIG1        0.1662
     33 C          -2.2501    2.6345   -3.3132 C.3     1  LIG1       -0.0479
     34 C          -4.6996   -2.7161    3.0120 C.3     1  LIG1       -0.0570
     35 C          -3.3601    3.2490   -4.1688 C.3     1  LIG1       -0.0556
     36 C          -5.3913   -2.8910    0.6952 C.2     1  LIG1        0.0449
     37 C           7.6188    1.6161    0.8786 C.3     1  LIG1        0.2332
     38 C          -3.0228    4.6378   -4.6898 C.3     1  LIG1       -0.0653
     39 C          -3.5103   -4.8488   -3.0096 C.3     1  LIG1        0.0788
     40 H           1.5126   -1.5044    0.6590 H       1  LIG1        0.0379
     41 H          -1.1237   -0.3246    1.5940 H       1  LIG1        0.0419
     42 H           1.7296    1.0889    2.2571 H       1  LIG1        0.0404
     43 H           2.1632    3.2180    0.0583 H       1  LIG1        0.0622
     44 H           0.6644   -1.2425   -1.6097 H       1  LIG1        0.0622
     45 H           3.8773    1.9539    2.3958 H       1  LIG1        0.0658
     46 H           0.4355    4.3391   -1.3385 H       1  LIG1        0.0636
     47 H           2.9872   -0.8159   -0.8149 H       1  LIG1        0.0622
     48 H          -3.3997   -1.0135    1.1767 H       1  LIG1        0.0319
     49 H          -2.3296   -2.0429    2.1435 H       1  LIG1        0.0319
     50 H          -3.4227   -3.8550   -0.7076 H       1  LIG1        0.0657
     51 H          -1.7951    4.4090   -2.1459 H       1  LIG1        0.0328
     52 H          -2.9793    3.3460   -1.3995 H       1  LIG1        0.0328
     53 H          -3.7818   -4.0324    1.5985 H       1  LIG1        0.0361
     54 H          -0.0863   -2.9333   -3.2181 H       1  LIG1        0.0654
     55 H           5.3720   -0.8147   -1.4789 H       1  LIG1        0.0655
     56 H          -2.5091    1.5847   -3.1231 H       1  LIG1        0.0269
     57 H          -1.3109    2.6222   -3.8805 H       1  LIG1        0.0269
     58 H          -5.0369   -1.6783    3.1136 H       1  LIG1        0.0236
     59 H          -3.9267   -2.8904    3.7680 H       1  LIG1        0.0236
     60 H          -5.5485   -3.3674    3.2484 H       1  LIG1        0.0236
     61 H          -4.2954    3.2887   -3.5983 H       1  LIG1        0.0263
     62 H          -3.5401    2.5913   -5.0276 H       1  LIG1        0.0263
     63 H           8.3532    1.1218    1.5254 H       1  LIG1        0.1166
     64 H           8.0902    2.4968    0.4268 H       1  LIG1        0.1166
     65 H          -2.9537    5.3664   -3.8772 H       1  LIG1        0.0230
     66 H          -3.8036    4.9809   -5.3763 H       1  LIG1        0.0230
     67 H          -2.0728    4.6334   -5.2333 H       1  LIG1        0.0230
     68 H          -3.7035   -5.4025   -3.9336 H       1  LIG1        0.0660
     69 H          -4.2202   -4.0152   -2.9713 H       1  LIG1        0.0660
     70 H          -3.6582   -5.5405   -2.1740 H       1  LIG1        0.0660
@<TRIPOS>BOND
     1     1    16   ar
     2     2    16   ar
     3     3    28    1
     4     3    37    1
     5     4    32    1
     6     4    37    1
     7     5    31    1
     8     5    39    1
     9     6    36   ar
    10     7    36   ar
    11     8    13   ar
    12     8    20   ar
    13     9    10    1
    14     9    11    1
    15     9    16    1
    16    10    13    1
    17    10    14    1
    18    11    12    1
    19    11    15    1
    20    12    13   ar
    21    12    17   ar
    22    14    18   ar
    23    14    19   ar
    24    15    21   ar
    25    15    23   ar
    26    17    22   ar
    27    18    24    1
    28    18    25   ar
    29    19    29   ar
    30    20    22   ar
    31    20    26    1
    32    21    28   ar
    33    23    30   ar
    34    24    27    1
    35    25    31   ar
    36    26    33    1
    37    27    34    1
    38    27    36    1
    39    28    32   ar
    40    29    31   ar
    41    30    32   ar
    42    33    35    1
    43    35    38    1
    44     9    40    1
    45    10    41    1
    46    11    42    1
    47    17    43    1
    48    19    44    1
    49    21    45    1
    50    22    46    1
    51    23    47    1
    52    24    48    1
    53    24    49    1
    54    25    50    1
    55    26    51    1
    56    26    52    1
    57    27    53    1
    58    29    54    1
    59    30    55    1
    60    33    56    1
    61    33    57    1
    62    34    58    1
    63    34    59    1
    64    34    60    1
    65    35    61    1
    66    35    62    1
    67    37    63    1
    68    37    64    1
    69    38    65    1
    70    38    66    1
    71    38    67    1
    72    39    68    1
    73    39    69    1
    74    39    70    1
@<TRIPOS>MOLECULE
3047752
 70 74 0 0 0
SMALL
GASTEIGER

@<TRIPOS>ATOM
      1 O           0.4451   -0.6296    3.5544 O.co2   1  LIG1       -0.5495
      2 O           1.8853   -2.2440    2.8450 O.co2   1  LIG1       -0.5495
      3 O           6.4942    2.1166    1.6599 O.3     1  LIG1       -0.4526
      4 O           7.2458    0.6979   -0.1434 O.3     1  LIG1       -0.4526
      5 O          -2.1419   -4.5259   -2.9011 O.3     1  LIG1       -0.4951
      6 O          -5.7715   -1.6618    0.4895 O.co2   1  LIG1       -0.5495
      7 O          -5.8875   -3.9222    0.2198 O.co2   1  LIG1       -0.5495
      8 N          -1.2584    1.4846   -0.6079 N.ar    1  LIG1       -0.2556
      9 C           1.0192   -0.7431    1.2554 C.3     1  LIG1        0.0217
     10 C          -0.4350   -0.4729    0.7803 C.3     1  LIG1        0.0357
     11 C           1.7753    0.6144    1.2916 C.3     1  LIG1        0.0199
     12 C           0.9275    1.4848    0.4042 C.ar    1  LIG1       -0.0174
     13 C          -0.2991    0.9015    0.1386 C.ar    1  LIG1        0.0534
     14 C          -0.9406   -1.5389   -0.2075 C.ar    1  LIG1       -0.0344
     15 C           3.2406    0.5757    0.8603 C.ar    1  LIG1       -0.0356
     16 C           1.0998   -1.2653    2.6840 C.2     1  LIG1        0.0466
     17 C           1.1885    2.7533   -0.0894 C.ar    1  LIG1       -0.0546
     18 C          -2.0893   -2.3373    0.0333 C.ar    1  LIG1       -0.0395
     19 C          -0.2303   -1.7294   -1.4141 C.ar    1  LIG1       -0.0542
     20 C          -0.9777    2.6945   -1.1402 C.ar    1  LIG1        0.0416
     21 C           4.1664    1.3985    1.5314 C.ar    1  LIG1       -0.0124
     22 C           0.2190    3.3678   -0.8805 C.ar    1  LIG1       -0.0401
     23 C           3.6964   -0.2253   -0.2141 C.ar    1  LIG1       -0.0543
     24 C          -2.9516   -2.1090    1.2706 C.3     1  LIG1       -0.0196
     25 C          -2.4297   -3.3245   -0.9161 C.ar    1  LIG1       -0.0165
     26 C          -2.0323    3.3203   -2.0194 C.3     1  LIG1       -0.0104
     27 C          -4.1344   -3.0518    1.5477 C.3     1  LIG1       -0.0003
     28 C           5.4841    1.3773    1.1251 C.ar    1  LIG1        0.1665
     29 C          -0.5981   -2.7027   -2.3428 C.ar    1  LIG1       -0.0197
     30 C           5.0431   -0.2391   -0.5950 C.ar    1  LIG1       -0.0159
     31 C          -1.6930   -3.5170   -2.0900 C.ar    1  LIG1        0.1204
     32 C           5.9114    0.5751    0.0943 C.ar    1  LIG1        0.1662
     33 C          -2.8484    2.3125   -2.8426 C.3     1  LIG1       -0.0479
     34 C          -4.6744   -2.8185    2.9636 C.3     1  LIG1       -0.0570
     35 C          -1.9969    1.5311   -3.8489 C.3     1  LIG1       -0.0556
     36 C          -5.3705   -2.8478    0.6531 C.2     1  LIG1        0.0449
     37 C           7.6086    1.6490    0.8768 C.3     1  LIG1        0.2332
     38 C          -2.8313    0.5147   -4.6122 C.3     1  LIG1       -0.0653
     39 C          -1.4833   -4.6833   -4.1468 C.3     1  LIG1        0.0788
     40 H           1.5085   -1.4799    0.6110 H       1  LIG1        0.0379
     41 H          -1.1193   -0.3584    1.6248 H       1  LIG1        0.0419
     42 H           1.7322    1.0596    2.2954 H       1  LIG1        0.0404
     43 H           2.1241    3.2553    0.1292 H       1  LIG1        0.0622
     44 H           0.6263   -1.0990   -1.6393 H       1  LIG1        0.0622
     45 H           3.8552    2.0315    2.3562 H       1  LIG1        0.0658
     46 H           0.3994    4.3539   -1.2921 H       1  LIG1        0.0636
     47 H           3.0011   -0.8599   -0.7578 H       1  LIG1        0.0622
     48 H          -3.3163   -1.0747    1.2309 H       1  LIG1        0.0319
     49 H          -2.2756   -2.1877    2.1330 H       1  LIG1        0.0319
     50 H          -3.2990   -3.9605   -0.7606 H       1  LIG1        0.0657
     51 H          -1.5624    4.0340   -2.7075 H       1  LIG1        0.0328
     52 H          -2.7116    3.8926   -1.3762 H       1  LIG1        0.0328
     53 H          -3.8005   -4.0952    1.4858 H       1  LIG1        0.0361
     54 H          -0.0051   -2.7945   -3.2434 H       1  LIG1        0.0654
     55 H           5.3854   -0.8758   -1.4013 H       1  LIG1        0.0655
     56 H          -3.6274    2.8614   -3.3866 H       1  LIG1        0.0269
     57 H          -3.3686    1.6143   -2.1750 H       1  LIG1        0.0269
     58 H          -4.9901   -1.7790    3.1107 H       1  LIG1        0.0236
     59 H          -3.9070   -3.0426    3.7119 H       1  LIG1        0.0236
     60 H          -5.5379   -3.4609    3.1713 H       1  LIG1        0.0236
     61 H          -1.1859    0.9990   -3.3403 H       1  LIG1        0.0263
     62 H          -1.5315    2.2254   -4.5580 H       1  LIG1        0.0263
     63 H           8.3388    1.1831    1.5487 H       1  LIG1        0.1166
     64 H           8.0813    2.5116    0.3932 H       1  LIG1        0.1166
     65 H          -3.2903   -0.2072   -3.9288 H       1  LIG1        0.0230
     66 H          -2.2019   -0.0392   -5.3159 H       1  LIG1        0.0230
     67 H          -3.6268    1.0066   -5.1804 H       1  LIG1        0.0230
     68 H          -1.9725   -5.5023   -4.6831 H       1  LIG1        0.0660
     69 H          -0.4330   -4.9612   -4.0084 H       1  LIG1        0.0660
     70 H          -1.5763   -3.7819   -4.7618 H       1  LIG1        0.0660
@<TRIPOS>BOND
     1     1    16   ar
     2     2    16   ar
     3     3    28    1
     4     3    37    1
     5     4    32    1
     6     4    37    1
     7     5    31    1
     8     5    39    1
     9     6    36   ar
    10     7    36   ar
    11     8    13   ar
    12     8    20   ar
    13     9    10    1
    14     9    11    1
    15     9    16    1
    16    10    13    1
    17    10    14    1
    18    11    12    1
    19    11    15    1
    20    12    13   ar
    21    12    17   ar
    22    14    18   ar
    23    14    19   ar
    24    15    21   ar
    25    15    23   ar
    26    17    22   ar
    27    18    24    1
    28    18    25   ar
    29    19    29   ar
    30    20    22   ar
    31    20    26    1
    32    21    28   ar
    33    23    30   ar
    34    24    27    1
    35    25    31   ar
    36    26    33    1
    37    27    34    1
    38    27    36    1
    39    28    32   ar
    40    29    31   ar
    41    30    32   ar
    42    33    35    1
    43    35    38    1
    44     9    40    1
    45    10    41    1
    46    11    42    1
    47    17    43    1
    48    19    44    1
    49    21    45    1
    50    22    46    1
    51    23    47    1
    52    24    48    1
    53    24    49    1
    54    25    50    1
    55    26    51    1
    56    26    52    1
    57    27    53    1
    58    29    54    1
    59    30    55    1
    60    33    56    1
    61    33    57    1
    62    34    58    1
    63    34    59    1
    64    34    60    1
    65    35    61    1
    66    35    62    1
    67    37    63    1
    68    37    64    1
    69    38    65    1
    70    38    66    1
    71    38    67    1
    72    39    68    1
    73    39    69    1
    74    39    70    1
@<TRIPOS>MOLECULE
3047752
 70 74 0 0 0
SMALL
GASTEIGER

@<TRIPOS>ATOM
      1 O           1.8063   -2.7286    2.2018 O.co2   1  LIG1       -0.5495
      2 O           1.1397   -0.9305    3.4291 O.co2   1  LIG1       -0.5495
      3 O           6.6581    0.3039    2.2951 O.3     1  LIG1       -0.4526
      4 O           7.3213    0.4125   -0.0222 O.3     1  LIG1       -0.4526
      5 O          -2.3294   -4.2099   -3.2022 O.3     1  LIG1       -0.4951
      6 O          -6.1079   -3.2703    2.8454 O.co2   1  LIG1       -0.5495
      7 O          -4.8822   -1.3864    3.2008 O.co2   1  LIG1       -0.5495
      8 N          -1.2600    1.4037   -0.6208 N.ar    1  LIG1       -0.2556
      9 C           1.1874   -0.7666    1.0622 C.3     1  LIG1        0.0217
     10 C          -0.3130   -0.5515    0.7243 C.3     1  LIG1        0.0357
     11 C           1.8228    0.6332    1.2446 C.3     1  LIG1        0.0199
     12 C           0.9157    1.5025    0.4177 C.ar    1  LIG1       -0.0174
     13 C          -0.2692    0.8495    0.1105 C.ar    1  LIG1        0.0534
     14 C          -0.9065   -1.5904   -0.2372 C.ar    1  LIG1       -0.0344
     15 C           3.2922    0.6346    0.8348 C.ar    1  LIG1       -0.0356
     16 C           1.3642   -1.5537    2.3540 C.2     1  LIG1        0.0466
     17 C           1.0934    2.8142    0.0105 C.ar    1  LIG1       -0.0546
     18 C          -2.1187   -2.2867    0.0161 C.ar    1  LIG1       -0.0395
     19 C          -0.2432   -1.8185   -1.4660 C.ar    1  LIG1       -0.0542
     20 C          -1.0646    2.6727   -1.0486 C.ar    1  LIG1        0.0416
     21 C           4.2698    0.5006    1.8377 C.ar    1  LIG1       -0.0124
     22 C           0.0850    3.4091   -0.7432 C.ar    1  LIG1       -0.0401
     23 C           3.6979    0.6835   -0.5219 C.ar    1  LIG1       -0.0543
     24 C          -2.9377   -2.0378    1.2931 C.3     1  LIG1       -0.0196
     25 C          -2.6007   -3.1695   -0.9807 C.ar    1  LIG1       -0.0165
     26 C          -2.1677    3.2822   -1.8736 C.3     1  LIG1       -0.0104
     27 C          -4.0924   -3.0108    1.6232 C.3     1  LIG1       -0.0003
     28 C           5.5937    0.4404    1.4582 C.ar    1  LIG1        0.1665
     29 C          -0.7405   -2.7038   -2.4203 C.ar    1  LIG1       -0.0197
     30 C           5.0495    0.6289   -0.8771 C.ar    1  LIG1       -0.0159
     31 C          -1.9256   -3.3830   -2.1857 C.ar    1  LIG1        0.1204
     32 C           5.9722    0.5039    0.1373 C.ar    1  LIG1        0.1662
     33 C          -3.1316    4.1495   -1.0599 C.3     1  LIG1       -0.0479
     34 C          -3.5597   -4.3562    2.1235 C.3     1  LIG1       -0.0570
     35 C          -3.9861    3.3385   -0.0824 C.3     1  LIG1       -0.0556
     36 C          -5.1067   -2.5080    2.6714 C.2     1  LIG1        0.0449
     37 C           7.7315    0.1971    1.3438 C.3     1  LIG1        0.2332
     38 C          -5.0039    4.2186    0.6260 C.3     1  LIG1       -0.0653
     39 C          -3.5657   -4.8856   -3.0088 C.3     1  LIG1        0.0788
     40 H           1.7053   -1.3102    0.2615 H       1  LIG1        0.0379
     41 H          -0.9013   -0.4752    1.6435 H       1  LIG1        0.0419
     42 H           1.7454    1.0171    2.2699 H       1  LIG1        0.0404
     43 H           1.9937    3.3595    0.2711 H       1  LIG1        0.0622
     44 H           0.6722   -1.2796   -1.6970 H       1  LIG1        0.0622
     45 H           3.9856    0.4061    2.8829 H       1  LIG1        0.0658
     46 H           0.1933    4.4316   -1.0861 H       1  LIG1        0.0636
     47 H           2.9481    0.7413   -1.3087 H       1  LIG1        0.0622
     48 H          -3.3411   -1.0212    1.2022 H       1  LIG1        0.0319
     49 H          -2.2513   -2.0439    2.1490 H       1  LIG1        0.0319
     50 H          -3.5281   -3.6952   -0.8024 H       1  LIG1        0.0657
     51 H          -2.7234    2.4846   -2.3825 H       1  LIG1        0.0328
     52 H          -1.7176    3.8900   -2.6688 H       1  LIG1        0.0328
     53 H          -4.7095   -3.1716    0.7320 H       1  LIG1        0.0361
     54 H          -0.2024   -2.8492   -3.3508 H       1  LIG1        0.0654
     55 H           5.3557    0.6579   -1.9151 H       1  LIG1        0.0655
     56 H          -3.7950    4.6710   -1.7613 H       1  LIG1        0.0269
     57 H          -2.5776    4.9226   -0.5132 H       1  LIG1        0.0269
     58 H          -3.0510   -4.2449    3.0878 H       1  LIG1        0.0236
     59 H          -2.8488   -4.7971    1.4180 H       1  LIG1        0.0236
     60 H          -4.3681   -5.0828    2.2606 H       1  LIG1        0.0236
     61 H          -3.3513    2.8588    0.6707 H       1  LIG1        0.0263
     62 H          -4.5134    2.5419   -0.6201 H       1  LIG1        0.0263
     63 H           8.1759   -0.8026    1.4232 H       1  LIG1        0.1166
     64 H           8.4973    0.9388    1.5971 H       1  LIG1        0.1166
     65 H          -4.5080    5.0110    1.1955 H       1  LIG1        0.0230
     66 H          -5.6011    3.6216    1.3223 H       1  LIG1        0.0230
     67 H          -5.6858    4.6857   -0.0918 H       1  LIG1        0.0230
     68 H          -3.7600   -5.4843   -3.9035 H       1  LIG1        0.0660
     69 H          -4.3931   -4.1765   -2.9014 H       1  LIG1        0.0660
     70 H          -3.5137   -5.5709   -2.1570 H       1  LIG1        0.0660
@<TRIPOS>BOND
     1     1    16   ar
     2     2    16   ar
     3     3    28    1
     4     3    37    1
     5     4    32    1
     6     4    37    1
     7     5    31    1
     8     5    39    1
     9     6    36   ar
    10     7    36   ar
    11     8    13   ar
    12     8    20   ar
    13     9    10    1
    14     9    11    1
    15     9    16    1
    16    10    13    1
    17    10    14    1
    18    11    12    1
    19    11    15    1
    20    12    13   ar
    21    12    17   ar
    22    14    18   ar
    23    14    19   ar
    24    15    21   ar
    25    15    23   ar
    26    17    22   ar
    27    18    24    1
    28    18    25   ar
    29    19    29   ar
    30    20    22   ar
    31    20    26    1
    32    21    28   ar
    33    23    30   ar
    34    24    27    1
    35    25    31   ar
    36    26    33    1
    37    27    34    1
    38    27    36    1
    39    28    32   ar
    40    29    31   ar
    41    30    32   ar
    42    33    35    1
    43    35    38    1
    44     9    40    1
    45    10    41    1
    46    11    42    1
    47    17    43    1
    48    19    44    1
    49    21    45    1
    50    22    46    1
    51    23    47    1
    52    24    48    1
    53    24    49    1
    54    25    50    1
    55    26    51    1
    56    26    52    1
    57    27    53    1
    58    29    54    1
    59    30    55    1
    60    33    56    1
    61    33    57    1
    62    34    58    1
    63    34    59    1
    64    34    60    1
    65    35    61    1
    66    35    62    1
    67    37    63    1
    68    37    64    1
    69    38    65    1
    70    38    66    1
    71    38    67    1
    72    39    68    1
    73    39    69    1
    74    39    70    1
@<TRIPOS>MOLECULE
3047752
 70 74 0 0 0
SMALL
GASTEIGER

@<TRIPOS>ATOM
      1 O           0.3446   -0.5527    3.5248 O.co2   1  LIG1       -0.5495
      2 O           1.9839   -2.0346    2.9772 O.co2   1  LIG1       -0.5495
      3 O           6.5312    1.9976    1.7599 O.3     1  LIG1       -0.4526
      4 O           7.2460    0.7549   -0.1827 O.3     1  LIG1       -0.4526
      5 O          -2.1799   -4.5457   -2.9242 O.3     1  LIG1       -0.4951
      6 O          -5.8493   -1.6934    0.5610 O.co2   1  LIG1       -0.5495
      7 O          -5.9269   -3.9566    0.3036 O.co2   1  LIG1       -0.5495
      8 N          -1.2284    1.4286   -0.7091 N.ar    1  LIG1       -0.2556
      9 C           1.0396   -0.7336    1.2597 C.3     1  LIG1        0.0217
     10 C          -0.4047   -0.4959    0.7335 C.3     1  LIG1        0.0357
     11 C           1.7824    0.6319    1.2641 C.3     1  LIG1        0.0199
     12 C           0.9386    1.4712    0.3440 C.ar    1  LIG1       -0.0174
     13 C          -0.2683    0.8598    0.0494 C.ar    1  LIG1        0.0534
     14 C          -0.9000   -1.5944   -0.2225 C.ar    1  LIG1       -0.0344
     15 C           3.2493    0.5924    0.8418 C.ar    1  LIG1       -0.0356
     16 C           1.1037   -1.1616    2.7216 C.2     1  LIG1        0.0466
     17 C           1.1864    2.7469   -0.1378 C.ar    1  LIG1       -0.0546
     18 C          -2.0956   -2.3321   -0.0084 C.ar    1  LIG1       -0.0395
     19 C          -0.1472   -1.8622   -1.3872 C.ar    1  LIG1       -0.0542
     20 C          -0.9806    2.6715   -1.1809 C.ar    1  LIG1        0.0416
     21 C           4.1922    1.3286    1.5845 C.ar    1  LIG1       -0.0124
     22 C           0.2073    3.3590   -0.9159 C.ar    1  LIG1       -0.0401
     23 C           3.6848   -0.1175   -0.3025 C.ar    1  LIG1       -0.0543
     24 C          -2.9885   -2.0519    1.1985 C.3     1  LIG1       -0.0196
     25 C          -2.4646   -3.3046   -0.9635 C.ar    1  LIG1       -0.0165
     26 C          -2.0808    3.3172   -1.9813 C.3     1  LIG1       -0.0104
     27 C          -4.1217   -3.0402    1.5278 C.3     1  LIG1       -0.0003
     28 C           5.5064    1.3263    1.1668 C.ar    1  LIG1        0.1665
     29 C          -0.5314   -2.8354   -2.3108 C.ar    1  LIG1       -0.0197
     30 C           5.0274   -0.1121   -0.6967 C.ar    1  LIG1       -0.0159
     31 C          -1.6941   -3.5638   -2.1018 C.ar    1  LIG1        0.1204
     32 C           5.9130    0.6227    0.0581 C.ar    1  LIG1        0.1662
     33 C          -3.0271    4.1700   -1.1297 C.3     1  LIG1       -0.0479
     34 C          -4.5915   -2.8462    2.9742 C.3     1  LIG1       -0.0570
     35 C          -3.8844    3.3409   -0.1687 C.3     1  LIG1       -0.0556
     36 C          -5.4121   -2.8692    0.7061 C.2     1  LIG1        0.0449
     37 C           7.6311    1.5977    0.9214 C.3     1  LIG1        0.2332
     38 C          -4.8962    4.2079    0.5644 C.3     1  LIG1       -0.0653
     39 C          -1.5106   -4.7309   -4.1606 C.3     1  LIG1        0.0788
     40 H           1.5616   -1.4922    0.6663 H       1  LIG1        0.0379
     41 H          -1.1086   -0.3503    1.5564 H       1  LIG1        0.0419
     42 H           1.7252    1.1108    2.2520 H       1  LIG1        0.0404
     43 H           2.1097    3.2625    0.1011 H       1  LIG1        0.0622
     44 H           0.7528   -1.2886   -1.5893 H       1  LIG1        0.0622
     45 H           3.8968    1.8836    2.4689 H       1  LIG1        0.0658
     46 H           0.3622    4.3618   -1.2964 H       1  LIG1        0.0636
     47 H           2.9703   -0.6864   -0.8919 H       1  LIG1        0.0622
     48 H          -3.3961   -1.0403    1.0793 H       1  LIG1        0.0319
     49 H          -2.3248   -2.0401    2.0730 H       1  LIG1        0.0319
     50 H          -3.3838   -3.8745   -0.8402 H       1  LIG1        0.0657
     51 H          -2.6494    2.5406   -2.5079 H       1  LIG1        0.0328
     52 H          -1.6314    3.9449   -2.7610 H       1  LIG1        0.0328
     53 H          -3.7579   -4.0714    1.4353 H       1  LIG1        0.0361
     54 H           0.0980   -2.9895   -3.1774 H       1  LIG1        0.0654
     55 H           5.3546   -0.6701   -1.5650 H       1  LIG1        0.0655
     56 H          -3.6897    4.7226   -1.8076 H       1  LIG1        0.0269
     57 H          -2.4576    4.9175   -0.5635 H       1  LIG1        0.0269
     58 H          -4.9130   -1.8151    3.1608 H       1  LIG1        0.0236
     59 H          -3.7820   -3.0756    3.6756 H       1  LIG1        0.0236
     60 H          -5.4325   -3.5071    3.2136 H       1  LIG1        0.0236
     61 H          -3.2509    2.8415    0.5724 H       1  LIG1        0.0263
     62 H          -4.4169    2.5595   -0.7230 H       1  LIG1        0.0263
     63 H           8.3637    1.0603    1.5349 H       1  LIG1        0.1166
     64 H           8.1086    2.4990    0.5197 H       1  LIG1        0.1166
     65 H          -4.3954    4.9838    1.1520 H       1  LIG1        0.0230
     66 H          -5.4936    3.5963    1.2478 H       1  LIG1        0.0230
     67 H          -5.5788    4.6949   -0.1393 H       1  LIG1        0.0230
     68 H          -2.0490   -5.5017   -4.7207 H       1  LIG1        0.0660
     69 H          -0.4873   -5.0892   -4.0067 H       1  LIG1        0.0660
     70 H          -1.5229   -3.8154   -4.7617 H       1  LIG1        0.0660
@<TRIPOS>BOND
     1     1    16   ar
     2     2    16   ar
     3     3    28    1
     4     3    37    1
     5     4    32    1
     6     4    37    1
     7     5    31    1
     8     5    39    1
     9     6    36   ar
    10     7    36   ar
    11     8    13   ar
    12     8    20   ar
    13     9    10    1
    14     9    11    1
    15     9    16    1
    16    10    13    1
    17    10    14    1
    18    11    12    1
    19    11    15    1
    20    12    13   ar
    21    12    17   ar
    22    14    18   ar
    23    14    19   ar
    24    15    21   ar
    25    15    23   ar
    26    17    22   ar
    27    18    24    1
    28    18    25   ar
    29    19    29   ar
    30    20    22   ar
    31    20    26    1
    32    21    28   ar
    33    23    30   ar
    34    24    27    1
    35    25    31   ar
    36    26    33    1
    37    27    34    1
    38    27    36    1
    39    28    32   ar
    40    29    31   ar
    41    30    32   ar
    42    33    35    1
    43    35    38    1
    44     9    40    1
    45    10    41    1
    46    11    42    1
    47    17    43    1
    48    19    44    1
    49    21    45    1
    50    22    46    1
    51    23    47    1
    52    24    48    1
    53    24    49    1
    54    25    50    1
    55    26    51    1
    56    26    52    1
    57    27    53    1
    58    29    54    1
    59    30    55    1
    60    33    56    1
    61    33    57    1
    62    34    58    1
    63    34    59    1
    64    34    60    1
    65    35    61    1
    66    35    62    1
    67    37    63    1
    68    37    64    1
    69    38    65    1
    70    38    66    1
    71    38    67    1
    72    39    68    1
    73    39    69    1
    74    39    70    1
@<TRIPOS>MOLECULE
3047752
 70 74 0 0 0
SMALL
GASTEIGER

@<TRIPOS>ATOM
      1 O           0.4221   -0.5560    3.5344 O.co2   1  LIG1       -0.5495
      2 O           1.6774   -2.3346    2.8531 O.co2   1  LIG1       -0.5495
      3 O           6.5099    2.1254    1.6544 O.3     1  LIG1       -0.4526
      4 O           7.2679    0.6559   -0.1066 O.3     1  LIG1       -0.4526
      5 O          -2.0805   -4.7235   -2.8018 O.3     1  LIG1       -0.4951
      6 O          -5.5184   -0.1789   -1.3428 O.co2   1  LIG1       -0.5495
      7 O          -6.0733   -2.3881   -1.4434 O.co2   1  LIG1       -0.5495
      8 N          -1.1839    1.4310   -0.7517 N.ar    1  LIG1       -0.2556
      9 C           1.0411   -0.7354    1.2441 C.3     1  LIG1        0.0217
     10 C          -0.3946   -0.4930    0.6870 C.3     1  LIG1        0.0357
     11 C           1.7864    0.6289    1.2789 C.3     1  LIG1        0.0199
     12 C           0.9506    1.4810    0.3573 C.ar    1  LIG1       -0.0174
     13 C          -0.2358    0.8585    0.0142 C.ar    1  LIG1        0.0534
     14 C          -0.9331   -1.5739   -0.2643 C.ar    1  LIG1       -0.0344
     15 C           3.2545    0.5860    0.8642 C.ar    1  LIG1       -0.0356
     16 C           1.0257   -1.2657    2.6737 C.2     1  LIG1        0.0466
     17 C           1.1832    2.7749   -0.0862 C.ar    1  LIG1       -0.0546
     18 C          -2.3026   -1.9548   -0.2910 C.ar    1  LIG1       -0.0395
     19 C          -0.0593   -2.1880   -1.1874 C.ar    1  LIG1       -0.0542
     20 C          -0.9518    2.6861   -1.1926 C.ar    1  LIG1        0.0416
     21 C           4.1775    1.4167    1.5265 C.ar    1  LIG1       -0.0124
     22 C           0.2133    3.3892   -0.8772 C.ar    1  LIG1       -0.0401
     23 C           3.7151   -0.2331   -0.1949 C.ar    1  LIG1       -0.0543
     24 C          -3.3561   -1.2022    0.5230 C.3     1  LIG1       -0.0196
     25 C          -2.6868   -3.0274   -1.1243 C.ar    1  LIG1       -0.0165
     26 C          -2.0518    3.3185   -2.0040 C.3     1  LIG1       -0.0104
     27 C          -4.8296   -1.6437    0.4249 C.3     1  LIG1       -0.0003
     28 C           5.4991    1.3784    1.1303 C.ar    1  LIG1        0.1665
     29 C          -0.4765   -3.2240   -2.0225 C.ar    1  LIG1       -0.0197
     30 C           5.0643   -0.2706   -0.5591 C.ar    1  LIG1       -0.0159
     31 C          -1.7859   -3.6748   -1.9698 C.ar    1  LIG1        0.1204
     32 C           5.9312    0.5503    0.1225 C.ar    1  LIG1        0.1662
     33 C          -3.0355    4.1348   -1.1581 C.3     1  LIG1       -0.0479
     34 C          -5.6917   -0.8923    1.4449 C.3     1  LIG1       -0.0570
     35 C          -3.8422    3.2795   -0.1758 C.3     1  LIG1       -0.0556
     36 C          -5.5192   -1.3698   -0.9272 C.2     1  LIG1        0.0449
     37 C           7.6245    1.6480    0.8748 C.3     1  LIG1        0.2332
     38 C          -4.8569    4.1137    0.5901 C.3     1  LIG1       -0.0653
     39 C          -3.3314   -5.3588   -2.5608 C.3     1  LIG1        0.0788
     40 H           1.5809   -1.4780    0.6605 H       1  LIG1        0.0379
     41 H          -1.0902   -0.3633    1.5237 H       1  LIG1        0.0419
     42 H           1.7237    1.0855    2.2754 H       1  LIG1        0.0404
     43 H           2.0873    3.3053    0.1919 H       1  LIG1        0.0622
     44 H           0.9700   -1.8611   -1.2752 H       1  LIG1        0.0622
     45 H           3.8627    2.0712    2.3333 H       1  LIG1        0.0658
     46 H           0.3570    4.4037   -1.2289 H       1  LIG1        0.0636
     47 H           3.0204   -0.8604   -0.7449 H       1  LIG1        0.0622
     48 H          -3.2890   -0.1393    0.2575 H       1  LIG1        0.0319
     49 H          -3.0648   -1.2986    1.5769 H       1  LIG1        0.0319
     50 H          -3.7246   -3.3379   -1.1265 H       1  LIG1        0.0657
     51 H          -2.5928    2.5360   -2.5504 H       1  LIG1        0.0328
     52 H          -1.6044    3.9674   -2.7669 H       1  LIG1        0.0328
     53 H          -4.9046   -2.7129    0.6625 H       1  LIG1        0.0361
     54 H           0.2292   -3.6832   -2.7058 H       1  LIG1        0.0654
     55 H           5.4073   -0.9252   -1.3516 H       1  LIG1        0.0655
     56 H          -3.7301    4.6433   -1.8381 H       1  LIG1        0.0269
     57 H          -2.4987    4.9178   -0.6090 H       1  LIG1        0.0269
     58 H          -5.6588    0.1919    1.2876 H       1  LIG1        0.0236
     59 H          -5.3489   -1.0937    2.4647 H       1  LIG1        0.0236
     60 H          -6.7391   -1.2069    1.3776 H       1  LIG1        0.0236
     61 H          -3.1762    2.7982    0.5477 H       1  LIG1        0.0263
     62 H          -4.3658    2.4839   -0.7178 H       1  LIG1        0.0263
     63 H           8.3689    1.2190    1.5543 H       1  LIG1        0.1166
     64 H           8.0766    2.5001    0.3549 H       1  LIG1        0.1166
     65 H          -4.3615    4.9038    1.1628 H       1  LIG1        0.0230
     66 H          -5.4113    3.4824    1.2919 H       1  LIG1        0.0230
     67 H          -5.5771    4.5796   -0.0900 H       1  LIG1        0.0230
     68 H          -3.4060   -6.2129   -3.2408 H       1  LIG1        0.0660
     69 H          -4.1725   -4.6923   -2.7805 H       1  LIG1        0.0660
     70 H          -3.3842   -5.7460   -1.5369 H       1  LIG1        0.0660
@<TRIPOS>BOND
     1     1    16   ar
     2     2    16   ar
     3     3    28    1
     4     3    37    1
     5     4    32    1
     6     4    37    1
     7     5    31    1
     8     5    39    1
     9     6    36   ar
    10     7    36   ar
    11     8    13   ar
    12     8    20   ar
    13     9    10    1
    14     9    11    1
    15     9    16    1
    16    10    13    1
    17    10    14    1
    18    11    12    1
    19    11    15    1
    20    12    13   ar
    21    12    17   ar
    22    14    18   ar
    23    14    19   ar
    24    15    21   ar
    25    15    23   ar
    26    17    22   ar
    27    18    24    1
    28    18    25   ar
    29    19    29   ar
    30    20    22   ar
    31    20    26    1
    32    21    28   ar
    33    23    30   ar
    34    24    27    1
    35    25    31   ar
    36    26    33    1
    37    27    34    1
    38    27    36    1
    39    28    32   ar
    40    29    31   ar
    41    30    32   ar
    42    33    35    1
    43    35    38    1
    44     9    40    1
    45    10    41    1
    46    11    42    1
    47    17    43    1
    48    19    44    1
    49    21    45    1
    50    22    46    1
    51    23    47    1
    52    24    48    1
    53    24    49    1
    54    25    50    1
    55    26    51    1
    56    26    52    1
    57    27    53    1
    58    29    54    1
    59    30    55    1
    60    33    56    1
    61    33    57    1
    62    34    58    1
    63    34    59    1
    64    34    60    1
    65    35    61    1
    66    35    62    1
    67    37    63    1
    68    37    64    1
    69    38    65    1
    70    38    66    1
    71    38    67    1
    72    39    68    1
    73    39    69    1
    74    39    70    1
@<TRIPOS>MOLECULE
3047752
 70 74 0 0 0
SMALL
GASTEIGER

@<TRIPOS>ATOM
      1 O           0.8530   -0.7811    3.4730 O.co2   1  LIG1       -0.5495
      2 O           2.0732   -2.4163    2.4651 O.co2   1  LIG1       -0.5495
      3 O           5.5901    0.8358   -2.0276 O.3     1  LIG1       -0.4526
      4 O           7.2393    0.5184   -0.2927 O.3     1  LIG1       -0.4526
      5 O          -2.0601   -4.4832   -3.0111 O.3     1  LIG1       -0.4951
      6 O          -6.0814   -3.3757    2.8439 O.co2   1  LIG1       -0.5495
      7 O          -4.9653   -1.4118    3.1155 O.co2   1  LIG1       -0.5495
      8 N          -1.2801    1.4181   -0.6387 N.ar    1  LIG1       -0.2556
      9 C           1.1543   -0.7177    1.1208 C.3     1  LIG1        0.0217
     10 C          -0.3386   -0.5111    0.7442 C.3     1  LIG1        0.0357
     11 C           1.8022    0.6835    1.2461 C.3     1  LIG1        0.0199
     12 C           0.8927    1.5349    0.4038 C.ar    1  LIG1       -0.0174
     13 C          -0.2894    0.8750    0.1013 C.ar    1  LIG1        0.0534
     14 C          -0.8878   -1.5883   -0.2015 C.ar    1  LIG1       -0.0344
     15 C           3.2701    0.6665    0.8275 C.ar    1  LIG1       -0.0356
     16 C           1.3459   -1.3806    2.4781 C.2     1  LIG1        0.0466
     17 C           1.0670    2.8433   -0.0165 C.ar    1  LIG1       -0.0546
     18 C          -2.0596   -2.3446    0.0694 C.ar    1  LIG1       -0.0395
     19 C          -0.2045   -1.8147   -1.4202 C.ar    1  LIG1       -0.0542
     20 C          -1.0877    2.6844   -1.0773 C.ar    1  LIG1        0.0416
     21 C           3.6786    0.7802   -0.5134 C.ar    1  LIG1       -0.0124
     22 C           0.0591    3.4273   -0.7781 C.ar    1  LIG1       -0.0401
     23 C           4.2505    0.4606    1.8295 C.ar    1  LIG1       -0.0543
     24 C          -2.9164   -2.0818    1.3187 C.3     1  LIG1       -0.0196
     25 C          -2.4610   -3.3112   -0.8836 C.ar    1  LIG1       -0.0165
     26 C          -2.1955    3.2884   -1.9000 C.3     1  LIG1       -0.0104
     27 C          -4.0544   -3.0760    1.6479 C.3     1  LIG1       -0.0003
     28 C           5.0296    0.7275   -0.7916 C.ar    1  LIG1        0.1665
     29 C          -0.6248   -2.7784   -2.3338 C.ar    1  LIG1       -0.0197
     30 C           5.6121    0.4039    1.5174 C.ar    1  LIG1       -0.0159
     31 C          -1.7425   -3.5493   -2.0587 C.ar    1  LIG1        0.1204
     32 C           5.9691    0.5474    0.1962 C.ar    1  LIG1        0.1662
     33 C          -3.1549    4.1584   -1.0833 C.3     1  LIG1       -0.0479
     34 C          -3.5002   -4.3891    2.2087 C.3     1  LIG1       -0.0570
     35 C          -4.0024    3.3501   -0.0975 C.3     1  LIG1       -0.0556
     36 C          -5.1181   -2.5715    2.6466 C.2     1  LIG1        0.0449
     37 C           6.9824    0.6628   -1.7031 C.3     1  LIG1        0.2332
     38 C          -5.0145    4.2319    0.6167 C.3     1  LIG1       -0.0653
     39 C          -2.9009   -5.5425   -2.5681 C.3     1  LIG1        0.0788
     40 H           1.6819   -1.3142    0.3649 H       1  LIG1        0.0379
     41 H          -0.9565   -0.4186    1.6417 H       1  LIG1        0.0419
     42 H           1.7410    1.0990    2.2610 H       1  LIG1        0.0404
     43 H           1.9645    3.3944    0.2410 H       1  LIG1        0.0622
     44 H           0.6743   -1.2234   -1.6665 H       1  LIG1        0.0622
     45 H           2.9602    0.8927   -1.3174 H       1  LIG1        0.0658
     46 H           0.1644    4.4473   -1.1294 H       1  LIG1        0.0636
     47 H           3.9331    0.3076    2.8624 H       1  LIG1        0.0622
     48 H          -3.3454   -1.0802    1.1873 H       1  LIG1        0.0319
     49 H          -2.2510   -2.0431    2.1903 H       1  LIG1        0.0319
     50 H          -3.3622   -3.8817   -0.7028 H       1  LIG1        0.0657
     51 H          -2.7532    2.4880   -2.4024 H       1  LIG1        0.0328
     52 H          -1.7502    3.8936   -2.6999 H       1  LIG1        0.0328
     53 H          -4.6375   -3.2824    0.7430 H       1  LIG1        0.0361
     54 H          -0.0689   -2.9296   -3.2524 H       1  LIG1        0.0654
     55 H           6.3510    0.2289    2.2893 H       1  LIG1        0.0655
     56 H          -3.8229    4.6774   -1.7821 H       1  LIG1        0.0269
     57 H          -2.5977    4.9335   -0.5426 H       1  LIG1        0.0269
     58 H          -3.0392   -4.2346    3.1908 H       1  LIG1        0.0236
     59 H          -2.7445   -4.8255    1.5487 H       1  LIG1        0.0236
     60 H          -4.2899   -5.1388    2.3301 H       1  LIG1        0.0236
     61 H          -3.3624    2.8719    0.6521 H       1  LIG1        0.0263
     62 H          -4.5338    2.5525   -0.6296 H       1  LIG1        0.0263
     63 H           7.5361    1.5351   -2.0693 H       1  LIG1        0.1166
     64 H           7.3557   -0.2285   -2.2212 H       1  LIG1        0.1166
     65 H          -4.5138    5.0241    1.1825 H       1  LIG1        0.0230
     66 H          -5.6077    3.6361    1.3174 H       1  LIG1        0.0230
     67 H          -5.7005    4.6993   -0.0969 H       1  LIG1        0.0230
     68 H          -2.9049   -6.3104   -3.3476 H       1  LIG1        0.0660
     69 H          -3.9312   -5.1968   -2.4395 H       1  LIG1        0.0660
     70 H          -2.5189   -6.0047   -1.6512 H       1  LIG1        0.0660
@<TRIPOS>BOND
     1     1    16   ar
     2     2    16   ar
     3     3    28    1
     4     3    37    1
     5     4    32    1
     6     4    37    1
     7     5    31    1
     8     5    39    1
     9     6    36   ar
    10     7    36   ar
    11     8    13   ar
    12     8    20   ar
    13     9    10    1
    14     9    11    1
    15     9    16    1
    16    10    13    1
    17    10    14    1
    18    11    12    1
    19    11    15    1
    20    12    13   ar
    21    12    17   ar
    22    14    18   ar
    23    14    19   ar
    24    15    21   ar
    25    15    23   ar
    26    17    22   ar
    27    18    24    1
    28    18    25   ar
    29    19    29   ar
    30    20    22   ar
    31    20    26    1
    32    21    28   ar
    33    23    30   ar
    34    24    27    1
    35    25    31   ar
    36    26    33    1
    37    27    34    1
    38    27    36    1
    39    28    32   ar
    40    29    31   ar
    41    30    32   ar
    42    33    35    1
    43    35    38    1
    44     9    40    1
    45    10    41    1
    46    11    42    1
    47    17    43    1
    48    19    44    1
    49    21    45    1
    50    22    46    1
    51    23    47    1
    52    24    48    1
    53    24    49    1
    54    25    50    1
    55    26    51    1
    56    26    52    1
    57    27    53    1
    58    29    54    1
    59    30    55    1
    60    33    56    1
    61    33    57    1
    62    34    58    1
    63    34    59    1
    64    34    60    1
    65    35    61    1
    66    35    62    1
    67    37    63    1
    68    37    64    1
    69    38    65    1
    70    38    66    1
    71    38    67    1
    72    39    68    1
    73    39    69    1
    74    39    70    1
@<TRIPOS>MOLECULE
3047752
 70 74 0 0 0
SMALL
GASTEIGER

@<TRIPOS>ATOM
      1 O           0.3073   -0.5299    3.5227 O.co2   1  LIG1       -0.5495
      2 O           1.9511   -2.0080    2.9778 O.co2   1  LIG1       -0.5495
      3 O           6.5119    1.9964    1.7679 O.3     1  LIG1       -0.4526
      4 O           7.2237    0.7540   -0.1762 O.3     1  LIG1       -0.4526
      5 O          -2.1902   -4.5209   -2.9292 O.3     1  LIG1       -0.4951
      6 O          -5.8709   -1.7078    0.5719 O.co2   1  LIG1       -0.5495
      7 O          -5.9305   -3.9713    0.3120 O.co2   1  LIG1       -0.5495
      8 N          -1.2409    1.4657   -0.7236 N.ar    1  LIG1       -0.2556
      9 C           1.0063   -0.7089    1.2591 C.3     1  LIG1        0.0217
     10 C          -0.4360   -0.4625    0.7301 C.3     1  LIG1        0.0357
     11 C           1.7578    0.6513    1.2642 C.3     1  LIG1        0.0199
     12 C           0.9234    1.4931    0.3376 C.ar    1  LIG1       -0.0174
     13 C          -0.2903    0.8931    0.0457 C.ar    1  LIG1        0.0534
     14 C          -0.9286   -1.5608   -0.2282 C.ar    1  LIG1       -0.0344
     15 C           3.2259    0.6026    0.8467 C.ar    1  LIG1       -0.0356
     16 C           1.0691   -1.1372    2.7208 C.2     1  LIG1        0.0466
     17 C           1.1902    2.7591   -0.1592 C.ar    1  LIG1       -0.0546
     18 C          -2.1160   -2.3101   -0.0105 C.ar    1  LIG1       -0.0395
     19 C          -0.1776   -1.8201   -1.3963 C.ar    1  LIG1       -0.0542
     20 C          -0.9676    2.6936   -1.2209 C.ar    1  LIG1        0.0416
     21 C           4.1709    1.3344    1.5910 C.ar    1  LIG1       -0.0124
     22 C           0.2268    3.3701   -0.9570 C.ar    1  LIG1       -0.0401
     23 C           3.6600   -0.1084   -0.2977 C.ar    1  LIG1       -0.0543
     24 C          -3.0059   -2.0420    1.2014 C.3     1  LIG1       -0.0196
     25 C          -2.4797   -3.2843   -0.9663 C.ar    1  LIG1       -0.0165
     26 C          -2.0426    3.3348   -2.0577 C.3     1  LIG1       -0.0104
     27 C          -4.1290   -3.0414    1.5316 C.3     1  LIG1       -0.0003
     28 C           5.4853    1.3283    1.1741 C.ar    1  LIG1        0.1665
     29 C          -0.5557   -2.7956   -2.3198 C.ar    1  LIG1       -0.0197
     30 C           5.0029   -0.1067   -0.6912 C.ar    1  LIG1       -0.0159
     31 C          -1.7106   -3.5353   -2.1076 C.ar    1  LIG1        0.1204
     32 C           5.8903    0.6247    0.0647 C.ar    1  LIG1        0.1662
     33 C          -3.0176    4.1412   -1.1979 C.3     1  LIG1       -0.0479
     34 C          -4.5965   -2.8555    2.9799 C.3     1  LIG1       -0.0570
     35 C          -4.1068    4.7857   -2.0553 C.3     1  LIG1       -0.0556
     36 C          -5.4235   -2.8800    0.7143 C.2     1  LIG1        0.0449
     37 C           7.6109    1.5946    0.9288 C.3     1  LIG1        0.2332
     38 C          -5.0862    5.5825   -1.2086 C.3     1  LIG1       -0.0653
     39 C          -1.5100   -4.7140   -4.1585 C.3     1  LIG1        0.0788
     40 H           1.5246   -1.4705    0.6660 H       1  LIG1        0.0379
     41 H          -1.1427   -0.3148    1.5502 H       1  LIG1        0.0419
     42 H           1.6994    1.1331    2.2505 H       1  LIG1        0.0404
     43 H           2.1194    3.2653    0.0769 H       1  LIG1        0.0622
     44 H           0.7170   -1.2386   -1.6002 H       1  LIG1        0.0622
     45 H           3.8766    1.8902    2.4752 H       1  LIG1        0.0658
     46 H           0.4005    4.3625   -1.3563 H       1  LIG1        0.0636
     47 H           2.9439   -0.6742   -0.8883 H       1  LIG1        0.0622
     48 H          -3.4229   -1.0338    1.0873 H       1  LIG1        0.0319
     49 H          -2.3382   -2.0270    2.0728 H       1  LIG1        0.0319
     50 H          -3.3929   -3.8632   -0.8404 H       1  LIG1        0.0657
     51 H          -2.5849    2.5497   -2.5993 H       1  LIG1        0.0328
     52 H          -1.5833    3.9759   -2.8201 H       1  LIG1        0.0328
     53 H          -3.7562   -4.0689    1.4355 H       1  LIG1        0.0361
     54 H           0.0719   -2.9423   -3.1890 H       1  LIG1        0.0654
     55 H           5.3288   -0.6647   -1.5603 H       1  LIG1        0.0655
     56 H          -2.4747    4.9202   -0.6476 H       1  LIG1        0.0269
     57 H          -3.4789    3.4878   -0.4463 H       1  LIG1        0.0269
     58 H          -4.9268   -1.8278    3.1700 H       1  LIG1        0.0236
     59 H          -3.7829   -3.0795    3.6785 H       1  LIG1        0.0236
     60 H          -5.4308   -3.5246    3.2198 H       1  LIG1        0.0236
     61 H          -4.6544    4.0116   -2.6054 H       1  LIG1        0.0263
     62 H          -3.6504    5.4504   -2.7981 H       1  LIG1        0.0263
     63 H           8.3422    1.0548    1.5417 H       1  LIG1        0.1166
     64 H           8.0904    2.4953    0.5279 H       1  LIG1        0.1166
     65 H          -5.5856    4.9394   -0.4770 H       1  LIG1        0.0230
     66 H          -5.8544    6.0351   -1.8433 H       1  LIG1        0.0230
     67 H          -4.5751    6.3858   -0.6685 H       1  LIG1        0.0230
     68 H          -2.0391   -5.4937   -4.7150 H       1  LIG1        0.0660
     69 H          -0.4856   -5.0638   -3.9933 H       1  LIG1        0.0660
     70 H          -1.5239   -3.8045   -4.7685 H       1  LIG1        0.0660
@<TRIPOS>BOND
     1     1    16   ar
     2     2    16   ar
     3     3    28    1
     4     3    37    1
     5     4    32    1
     6     4    37    1
     7     5    31    1
     8     5    39    1
     9     6    36   ar
    10     7    36   ar
    11     8    13   ar
    12     8    20   ar
    13     9    10    1
    14     9    11    1
    15     9    16    1
    16    10    13    1
    17    10    14    1
    18    11    12    1
    19    11    15    1
    20    12    13   ar
    21    12    17   ar
    22    14    18   ar
    23    14    19   ar
    24    15    21   ar
    25    15    23   ar
    26    17    22   ar
    27    18    24    1
    28    18    25   ar
    29    19    29   ar
    30    20    22   ar
    31    20    26    1
    32    21    28   ar
    33    23    30   ar
    34    24    27    1
    35    25    31   ar
    36    26    33    1
    37    27    34    1
    38    27    36    1
    39    28    32   ar
    40    29    31   ar
    41    30    32   ar
    42    33    35    1
    43    35    38    1
    44     9    40    1
    45    10    41    1
    46    11    42    1
    47    17    43    1
    48    19    44    1
    49    21    45    1
    50    22    46    1
    51    23    47    1
    52    24    48    1
    53    24    49    1
    54    25    50    1
    55    26    51    1
    56    26    52    1
    57    27    53    1
    58    29    54    1
    59    30    55    1
    60    33    56    1
    61    33    57    1
    62    34    58    1
    63    34    59    1
    64    34    60    1
    65    35    61    1
    66    35    62    1
    67    37    63    1
    68    37    64    1
    69    38    65    1
    70    38    66    1
    71    38    67    1
    72    39    68    1
    73    39    69    1
    74    39    70    1
@<TRIPOS>MOLECULE
3047752
 70 74 0 0 0
SMALL
GASTEIGER

@<TRIPOS>ATOM
      1 O           2.3006   -2.1121    2.5891 O.co2   1  LIG1       -0.5495
      2 O           0.4550   -1.0391    3.3769 O.co2   1  LIG1       -0.5495
      3 O           6.6508    1.2155    2.2487 O.3     1  LIG1       -0.4526
      4 O           7.2876    0.7197   -0.0273 O.3     1  LIG1       -0.4526
      5 O          -2.3488   -4.4913   -2.9581 O.3     1  LIG1       -0.4951
      6 O          -5.9390    0.6422    1.4412 O.co2   1  LIG1       -0.5495
      7 O          -6.3208   -0.0969   -0.6838 O.co2   1  LIG1       -0.5495
      8 N          -1.0983    1.4608   -0.8500 N.ar    1  LIG1       -0.2556
      9 C           1.1293   -0.6969    1.1252 C.3     1  LIG1        0.0217
     10 C          -0.3418   -0.4825    0.6535 C.3     1  LIG1        0.0357
     11 C           1.7917    0.6907    1.3022 C.3     1  LIG1        0.0199
     12 C           0.9474    1.5483    0.4031 C.ar    1  LIG1       -0.0174
     13 C          -0.1930    0.8872   -0.0282 C.ar    1  LIG1        0.0534
     14 C          -0.9659   -1.5808   -0.2299 C.ar    1  LIG1       -0.0344
     15 C           3.2670    0.7001    0.8945 C.ar    1  LIG1       -0.0356
     16 C           1.2929   -1.3532    2.4884 C.2     1  LIG1        0.0466
     17 C           1.1754    2.8591    0.0139 C.ar    1  LIG1       -0.0546
     18 C          -2.3285   -1.5547   -0.6328 C.ar    1  LIG1       -0.0395
     19 C          -0.1933   -2.6759   -0.6748 C.ar    1  LIG1       -0.0542
     20 C          -0.8898    2.7506   -1.2121 C.ar    1  LIG1        0.0416
     21 C           4.2543    0.9781    1.8539 C.ar    1  LIG1       -0.0124
     22 C           0.2406    3.4695   -0.8139 C.ar    1  LIG1       -0.0401
     23 C           3.6615    0.4135   -0.4396 C.ar    1  LIG1       -0.0543
     24 C          -3.3530   -0.5234   -0.1597 C.3     1  LIG1       -0.0196
     25 C          -2.8005   -2.5130   -1.5670 C.ar    1  LIG1       -0.0165
     26 C          -1.9123    3.4122   -2.1083 C.3     1  LIG1       -0.0104
     27 C          -4.5813   -1.1208    0.5534 C.3     1  LIG1       -0.0003
     28 C           5.5744    0.9664    1.4526 C.ar    1  LIG1        0.1665
     29 C          -0.6939   -3.6343   -1.5629 C.ar    1  LIG1       -0.0197
     30 C           5.0063    0.4072   -0.8169 C.ar    1  LIG1       -0.0159
     31 C          -1.9871   -3.5346   -2.0481 C.ar    1  LIG1        0.1204
     32 C           5.9391    0.6872    0.1545 C.ar    1  LIG1        0.1662
     33 C          -3.3468    2.9490   -1.8438 C.3     1  LIG1       -0.0479
     34 C          -4.2649   -1.5102    1.9918 C.3     1  LIG1       -0.0570
     35 C          -4.3663    3.7784   -2.6234 C.3     1  LIG1       -0.0556
     36 C          -5.7101   -0.0788    0.4301 C.2     1  LIG1        0.0449
     37 C           7.7265    0.9840    1.3201 C.3     1  LIG1        0.2332
     38 C          -5.7853    3.3032   -2.3511 C.3     1  LIG1       -0.0653
     39 C          -3.5082   -4.1947   -3.7270 C.3     1  LIG1        0.0788
     40 H           1.7075   -1.2607    0.3884 H       1  LIG1        0.0379
     41 H          -0.9953   -0.3519    1.5245 H       1  LIG1        0.0419
     42 H           1.6840    1.0787    2.3242 H       1  LIG1        0.0404
     43 H           2.0553    3.3944    0.3527 H       1  LIG1        0.0622
     44 H           0.8273   -2.8279   -0.3384 H       1  LIG1        0.0622
     45 H           3.9906    1.1693    2.8890 H       1  LIG1        0.0658
     46 H           0.3849    4.4959   -1.1306 H       1  LIG1        0.0636
     47 H           2.9028    0.1789   -1.1855 H       1  LIG1        0.0622
     48 H          -3.6664    0.0251   -1.0550 H       1  LIG1        0.0319
     49 H          -2.9008    0.2199    0.5018 H       1  LIG1        0.0319
     50 H          -3.8334   -2.4255   -1.8942 H       1  LIG1        0.0657
     51 H          -1.6395    3.2117   -3.1512 H       1  LIG1        0.0328
     52 H          -1.8630    4.4986   -1.9624 H       1  LIG1        0.0328
     53 H          -4.9413   -2.0218    0.0414 H       1  LIG1        0.0361
     54 H          -0.0524   -4.4487   -1.8843 H       1  LIG1        0.0654
     55 H           5.2996    0.1747   -1.8325 H       1  LIG1        0.0655
     56 H          -3.5693    3.0092   -0.7708 H       1  LIG1        0.0269
     57 H          -3.4475    1.8994   -2.1385 H       1  LIG1        0.0269
     58 H          -3.8391   -0.6733    2.5549 H       1  LIG1        0.0236
     59 H          -3.5478   -2.3365    2.0211 H       1  LIG1        0.0236
     60 H          -5.1717   -1.8351    2.5133 H       1  LIG1        0.0236
     61 H          -4.1609    3.7068   -3.6978 H       1  LIG1        0.0263
     62 H          -4.2811    4.8349   -2.3445 H       1  LIG1        0.0263
     63 H           8.3171    0.1287    1.6705 H       1  LIG1        0.1166
     64 H           8.3720    1.8698    1.3063 H       1  LIG1        0.1166
     65 H          -5.9117    2.2567   -2.6463 H       1  LIG1        0.0230
     66 H          -6.5026    3.9049   -2.9173 H       1  LIG1        0.0230
     67 H          -6.0312    3.3919   -1.2880 H       1  LIG1        0.0230
     68 H          -3.5832   -4.9479   -4.5179 H       1  LIG1        0.0660
     69 H          -3.4286   -3.2149   -4.2118 H       1  LIG1        0.0660
     70 H          -4.4141   -4.2640   -3.1164 H       1  LIG1        0.0660
@<TRIPOS>BOND
     1     1    16   ar
     2     2    16   ar
     3     3    28    1
     4     3    37    1
     5     4    32    1
     6     4    37    1
     7     5    31    1
     8     5    39    1
     9     6    36   ar
    10     7    36   ar
    11     8    13   ar
    12     8    20   ar
    13     9    10    1
    14     9    11    1
    15     9    16    1
    16    10    13    1
    17    10    14    1
    18    11    12    1
    19    11    15    1
    20    12    13   ar
    21    12    17   ar
    22    14    18   ar
    23    14    19   ar
    24    15    21   ar
    25    15    23   ar
    26    17    22   ar
    27    18    24    1
    28    18    25   ar
    29    19    29   ar
    30    20    22   ar
    31    20    26    1
    32    21    28   ar
    33    23    30   ar
    34    24    27    1
    35    25    31   ar
    36    26    33    1
    37    27    34    1
    38    27    36    1
    39    28    32   ar
    40    29    31   ar
    41    30    32   ar
    42    33    35    1
    43    35    38    1
    44     9    40    1
    45    10    41    1
    46    11    42    1
    47    17    43    1
    48    19    44    1
    49    21    45    1
    50    22    46    1
    51    23    47    1
    52    24    48    1
    53    24    49    1
    54    25    50    1
    55    26    51    1
    56    26    52    1
    57    27    53    1
    58    29    54    1
    59    30    55    1
    60    33    56    1
    61    33    57    1
    62    34    58    1
    63    34    59    1
    64    34    60    1
    65    35    61    1
    66    35    62    1
    67    37    63    1
    68    37    64    1
    69    38    65    1
    70    38    66    1
    71    38    67    1
    72    39    68    1
    73    39    69    1
    74    39    70    1
@<TRIPOS>MOLECULE
3047752
 70 74 0 0 0
SMALL
GASTEIGER

@<TRIPOS>ATOM
      1 O           0.7775   -2.5813    2.6349 O.co2   1  LIG1       -0.5495
      2 O           1.3816   -0.6318    3.6269 O.co2   1  LIG1       -0.5495
      3 O           6.6154    0.2587    2.2583 O.3     1  LIG1       -0.4526
      4 O           7.2322    0.3185   -0.0743 O.3     1  LIG1       -0.4526
      5 O          -1.9130   -4.5580   -2.9533 O.3     1  LIG1       -0.4951
      6 O          -5.8990   -1.6764    0.5880 O.co2   1  LIG1       -0.5495
      7 O          -5.7776   -3.9068    0.1293 O.co2   1  LIG1       -0.5495
      8 N          -1.2698    1.4609   -0.6355 N.ar    1  LIG1       -0.2556
      9 C           1.0783   -0.6811    1.2634 C.3     1  LIG1        0.0217
     10 C          -0.3850   -0.4733    0.7686 C.3     1  LIG1        0.0357
     11 C           1.7674    0.7034    1.3038 C.3     1  LIG1        0.0199
     12 C           0.8842    1.5499    0.4328 C.ar    1  LIG1       -0.0174
     13 C          -0.2991    0.9047    0.1171 C.ar    1  LIG1        0.0534
     14 C          -0.8879   -1.5573   -0.1956 C.ar    1  LIG1       -0.0344
     15 C           3.2258    0.6210    0.8611 C.ar    1  LIG1       -0.0356
     16 C           1.0553   -1.3508    2.6372 C.2     1  LIG1        0.0466
     17 C           1.0911    2.8482   -0.0053 C.ar    1  LIG1       -0.0546
     18 C          -2.0821   -2.2961    0.0265 C.ar    1  LIG1       -0.0395
     19 C          -0.1372   -1.8285   -1.3613 C.ar    1  LIG1       -0.0542
     20 C          -1.0421    2.7107   -1.1058 C.ar    1  LIG1        0.0416
     21 C           4.2209    0.4821    1.8457 C.ar    1  LIG1       -0.0124
     22 C           0.1123    3.4373   -0.7993 C.ar    1  LIG1       -0.0401
     23 C           3.6038    0.6276   -0.5048 C.ar    1  LIG1       -0.0543
     24 C          -2.9825   -2.0037    1.2259 C.3     1  LIG1       -0.0196
     25 C          -2.4384   -3.2971   -0.9033 C.ar    1  LIG1       -0.0165
     26 C          -2.1027    3.2997   -2.0000 C.3     1  LIG1       -0.0104
     27 C          -4.1338   -2.9733    1.5543 C.3     1  LIG1       -0.0003
     28 C           5.5355    0.3911    1.4408 C.ar    1  LIG1        0.1665
     29 C          -0.5154   -2.8255   -2.2607 C.ar    1  LIG1       -0.0197
     30 C           4.9462    0.5404   -0.8865 C.ar    1  LIG1       -0.0159
     31 C          -1.6556   -3.5816   -2.0244 C.ar    1  LIG1        0.1204
     32 C           5.8877    0.4241    0.1110 C.ar    1  LIG1        0.1662
     33 C          -2.3339    2.4835   -3.2771 C.3     1  LIG1       -0.0479
     34 C          -4.6499   -2.7234    2.9755 C.3     1  LIG1       -0.0570
     35 C          -1.1078    2.4439   -4.1941 C.3     1  LIG1       -0.0556
     36 C          -5.3800   -2.8256    0.6622 C.2     1  LIG1        0.0449
     37 C           7.6731    0.1524    1.2888 C.3     1  LIG1        0.2332
     38 C          -1.3962    1.6734   -5.4729 C.3     1  LIG1       -0.0653
     39 C          -2.9160   -5.5010   -2.5861 C.3     1  LIG1        0.0788
     40 H           1.6316   -1.3574    0.5982 H       1  LIG1        0.0379
     41 H          -1.0544   -0.3610    1.6271 H       1  LIG1        0.0419
     42 H           1.7317    1.1804    2.2912 H       1  LIG1        0.0404
     43 H           1.9958    3.3852    0.2594 H       1  LIG1        0.0622
     44 H           0.7626   -1.2572   -1.5715 H       1  LIG1        0.0622
     45 H           3.9548    0.4244    2.8989 H       1  LIG1        0.0658
     46 H           0.2520    4.4436   -1.1756 H       1  LIG1        0.0636
     47 H           2.8408    0.6922   -1.2787 H       1  LIG1        0.0622
     48 H          -3.3790   -0.9885    1.0987 H       1  LIG1        0.0319
     49 H          -2.3279   -1.9970    2.1071 H       1  LIG1        0.0319
     50 H          -3.3530   -3.8552   -0.7402 H       1  LIG1        0.0657
     51 H          -1.8489    4.3326   -2.2675 H       1  LIG1        0.0328
     52 H          -3.0380    3.3480   -1.4287 H       1  LIG1        0.0328
     53 H          -3.7719   -4.0086    1.5147 H       1  LIG1        0.0361
     54 H           0.0908   -3.0186   -3.1384 H       1  LIG1        0.0654
     55 H           5.2312    0.5496   -1.9311 H       1  LIG1        0.0655
     56 H          -3.1743    2.9301   -3.8225 H       1  LIG1        0.0269
     57 H          -2.6333    1.4595   -3.0212 H       1  LIG1        0.0269
     58 H          -4.9572   -1.6811    3.1191 H       1  LIG1        0.0236
     59 H          -3.8702   -2.9446    3.7124 H       1  LIG1        0.0236
     60 H          -5.5122   -3.3607    3.2037 H       1  LIG1        0.0236
     61 H          -0.2638    1.9676   -3.6827 H       1  LIG1        0.0263
     62 H          -0.8000    3.4645   -4.4493 H       1  LIG1        0.0263
     63 H           8.1438   -0.8330    1.3868 H       1  LIG1        0.1166
     64 H           8.4243    0.9199    1.5069 H       1  LIG1        0.1166
     65 H          -1.6837    0.6403   -5.2517 H       1  LIG1        0.0230
     66 H          -0.5061    1.6488   -6.1095 H       1  LIG1        0.0230
     67 H          -2.2066    2.1425   -6.0399 H       1  LIG1        0.0230
     68 H          -2.9233   -6.2887   -3.3454 H       1  LIG1        0.0660
     69 H          -3.9089   -5.0399   -2.5783 H       1  LIG1        0.0660
     70 H          -2.6869   -5.9757   -1.6250 H       1  LIG1        0.0660
@<TRIPOS>BOND
     1     1    16   ar
     2     2    16   ar
     3     3    28    1
     4     3    37    1
     5     4    32    1
     6     4    37    1
     7     5    31    1
     8     5    39    1
     9     6    36   ar
    10     7    36   ar
    11     8    13   ar
    12     8    20   ar
    13     9    10    1
    14     9    11    1
    15     9    16    1
    16    10    13    1
    17    10    14    1
    18    11    12    1
    19    11    15    1
    20    12    13   ar
    21    12    17   ar
    22    14    18   ar
    23    14    19   ar
    24    15    21   ar
    25    15    23   ar
    26    17    22   ar
    27    18    24    1
    28    18    25   ar
    29    19    29   ar
    30    20    22   ar
    31    20    26    1
    32    21    28   ar
    33    23    30   ar
    34    24    27    1
    35    25    31   ar
    36    26    33    1
    37    27    34    1
    38    27    36    1
    39    28    32   ar
    40    29    31   ar
    41    30    32   ar
    42    33    35    1
    43    35    38    1
    44     9    40    1
    45    10    41    1
    46    11    42    1
    47    17    43    1
    48    19    44    1
    49    21    45    1
    50    22    46    1
    51    23    47    1
    52    24    48    1
    53    24    49    1
    54    25    50    1
    55    26    51    1
    56    26    52    1
    57    27    53    1
    58    29    54    1
    59    30    55    1
    60    33    56    1
    61    33    57    1
    62    34    58    1
    63    34    59    1
    64    34    60    1
    65    35    61    1
    66    35    62    1
    67    37    63    1
    68    37    64    1
    69    38    65    1
    70    38    66    1
    71    38    67    1
    72    39    68    1
    73    39    69    1
    74    39    70    1
@<TRIPOS>MOLECULE
3047752
 70 74 0 0 0
SMALL
GASTEIGER

@<TRIPOS>ATOM
      1 O           0.6371   -0.6740    3.5272 O.co2   1  LIG1       -0.5495
      2 O           2.0516   -2.2516    2.7012 O.co2   1  LIG1       -0.5495
      3 O           5.5651    0.8801   -1.9948 O.3     1  LIG1       -0.4526
      4 O           7.2270    0.4808   -0.2890 O.3     1  LIG1       -0.4526
      5 O          -2.3743   -4.4857   -2.8430 O.3     1  LIG1       -0.4951
      6 O          -5.3468   -0.1880    2.1905 O.co2   1  LIG1       -0.5495
      7 O          -6.1430   -2.2567    2.6991 O.co2   1  LIG1       -0.5495
      8 N          -1.1910    1.4676   -0.6961 N.ar    1  LIG1       -0.2556
      9 C           1.1376   -0.6823    1.2057 C.3     1  LIG1        0.0217
     10 C          -0.3286   -0.4706    0.7244 C.3     1  LIG1        0.0357
     11 C           1.8093    0.7088    1.3083 C.3     1  LIG1        0.0199
     12 C           0.9293    1.5642    0.4409 C.ar    1  LIG1       -0.0174
     13 C          -0.2382    0.9106    0.0828 C.ar    1  LIG1        0.0534
     14 C          -0.8945   -1.5279   -0.2357 C.ar    1  LIG1       -0.0344
     15 C           3.2742    0.6538    0.8776 C.ar    1  LIG1       -0.0356
     16 C           1.2543   -1.2722    2.6069 C.2     1  LIG1        0.0466
     17 C           1.1387    2.8678    0.0206 C.ar    1  LIG1       -0.0546
     18 C          -2.2730   -1.8623   -0.2788 C.ar    1  LIG1       -0.0395
     19 C          -0.0420   -2.1593   -1.1671 C.ar    1  LIG1       -0.0542
     20 C          -0.9738    2.7350   -1.1218 C.ar    1  LIG1        0.0416
     21 C           3.6721    0.7951   -0.4649 C.ar    1  LIG1       -0.0124
     22 C           0.1774    3.4575   -0.7918 C.ar    1  LIG1       -0.0401
     23 C           4.2580    0.3958    1.8627 C.ar    1  LIG1       -0.0543
     24 C          -3.3460   -1.1798    0.5678 C.3     1  LIG1       -0.0196
     25 C          -2.7126   -2.8556   -1.1871 C.ar    1  LIG1       -0.0165
     26 C          -2.0573    3.3535   -1.9686 C.3     1  LIG1       -0.0104
     27 C          -4.0834   -2.1189    1.5357 C.3     1  LIG1       -0.0003
     28 C           5.0168    0.7331   -0.7579 C.ar    1  LIG1        0.1665
     29 C          -0.4947   -3.1506   -2.0419 C.ar    1  LIG1       -0.0197
     30 C           5.6152    0.3222    1.5332 C.ar    1  LIG1       -0.0159
     31 C          -1.8299   -3.5242   -2.0330 C.ar    1  LIG1        0.1204
     32 C           5.9629    0.5066    0.2141 C.ar    1  LIG1        0.1662
     33 C          -2.6486    4.6440   -1.3886 C.3     1  LIG1       -0.0479
     34 C          -3.1645   -2.6563    2.6301 C.3     1  LIG1       -0.0570
     35 C          -3.3285    4.4362   -0.0332 C.3     1  LIG1       -0.0556
     36 C          -5.2921   -1.4472    2.2176 C.2     1  LIG1        0.0449
     37 C           6.9608    0.7108   -1.6866 C.3     1  LIG1        0.2332
     38 C          -3.8663    5.7463    0.5208 C.3     1  LIG1       -0.0653
     39 C          -1.4906   -5.5548   -3.1617 C.3     1  LIG1        0.0788
     40 H           1.7140   -1.3230    0.5327 H       1  LIG1        0.0379
     41 H          -0.9728   -0.3982    1.6054 H       1  LIG1        0.0419
     42 H           1.7615    1.1426    2.3163 H       1  LIG1        0.0404
     43 H           2.0320    3.4086    0.3125 H       1  LIG1        0.0622
     44 H           1.0049   -1.8806   -1.2383 H       1  LIG1        0.0622
     45 H           2.9493    0.9463   -1.2594 H       1  LIG1        0.0658
     46 H           0.3190    4.4710   -1.1478 H       1  LIG1        0.0636
     47 H           3.9473    0.2189    2.8936 H       1  LIG1        0.0622
     48 H          -4.0716   -0.7451   -0.1348 H       1  LIG1        0.0319
     49 H          -2.9459   -0.3187    1.1097 H       1  LIG1        0.0319
     50 H          -3.7686   -3.1152   -1.2212 H       1  LIG1        0.0657
     51 H          -2.8627    2.6246   -2.1227 H       1  LIG1        0.0328
     52 H          -1.6367    3.5637   -2.9600 H       1  LIG1        0.0328
     53 H          -4.4877   -2.9741    0.9791 H       1  LIG1        0.0361
     54 H           0.2197   -3.5946   -2.7239 H       1  LIG1        0.0654
     55 H           6.3580    0.1099    2.2919 H       1  LIG1        0.0655
     56 H          -3.3841    5.0374   -2.1016 H       1  LIG1        0.0269
     57 H          -1.8688    5.4096   -1.2957 H       1  LIG1        0.0269
     58 H          -2.6852   -1.8430    3.1851 H       1  LIG1        0.0236
     59 H          -2.3761   -3.2859    2.2033 H       1  LIG1        0.0236
     60 H          -3.7151   -3.2711    3.3501 H       1  LIG1        0.0236
     61 H          -2.6220    4.0171    0.6916 H       1  LIG1        0.0263
     62 H          -4.1511    3.7195   -0.1370 H       1  LIG1        0.0263
     63 H           7.4976    1.6140   -1.9987 H       1  LIG1        0.1166
     64 H           7.3451   -0.1395   -2.2620 H       1  LIG1        0.1166
     65 H          -3.0576    6.4703    0.6651 H       1  LIG1        0.0230
     66 H          -4.3470    5.5787    1.4895 H       1  LIG1        0.0230
     67 H          -4.6052    6.1862   -0.1561 H       1  LIG1        0.0230
     68 H          -2.0867   -6.3639   -3.5948 H       1  LIG1        0.0660
     69 H          -0.9921   -5.9498   -2.2690 H       1  LIG1        0.0660
     70 H          -0.7585   -5.2465   -3.9150 H       1  LIG1        0.0660
@<TRIPOS>BOND
     1     1    16   ar
     2     2    16   ar
     3     3    28    1
     4     3    37    1
     5     4    32    1
     6     4    37    1
     7     5    31    1
     8     5    39    1
     9     6    36   ar
    10     7    36   ar
    11     8    13   ar
    12     8    20   ar
    13     9    10    1
    14     9    11    1
    15     9    16    1
    16    10    13    1
    17    10    14    1
    18    11    12    1
    19    11    15    1
    20    12    13   ar
    21    12    17   ar
    22    14    18   ar
    23    14    19   ar
    24    15    21   ar
    25    15    23   ar
    26    17    22   ar
    27    18    24    1
    28    18    25   ar
    29    19    29   ar
    30    20    22   ar
    31    20    26    1
    32    21    28   ar
    33    23    30   ar
    34    24    27    1
    35    25    31   ar
    36    26    33    1
    37    27    34    1
    38    27    36    1
    39    28    32   ar
    40    29    31   ar
    41    30    32   ar
    42    33    35    1
    43    35    38    1
    44     9    40    1
    45    10    41    1
    46    11    42    1
    47    17    43    1
    48    19    44    1
    49    21    45    1
    50    22    46    1
    51    23    47    1
    52    24    48    1
    53    24    49    1
    54    25    50    1
    55    26    51    1
    56    26    52    1
    57    27    53    1
    58    29    54    1
    59    30    55    1
    60    33    56    1
    61    33    57    1
    62    34    58    1
    63    34    59    1
    64    34    60    1
    65    35    61    1
    66    35    62    1
    67    37    63    1
    68    37    64    1
    69    38    65    1
    70    38    66    1
    71    38    67    1
    72    39    68    1
    73    39    69    1
    74    39    70    1
@<TRIPOS>MOLECULE
3047752
 70 74 0 0 0
SMALL
GASTEIGER

@<TRIPOS>ATOM
      1 O           0.7378   -0.7905    3.5022 O.co2   1  LIG1       -0.5495
      2 O           2.0862   -2.3731    2.5763 O.co2   1  LIG1       -0.5495
      3 O           5.5849    0.8861   -1.9785 O.3     1  LIG1       -0.4526
      4 O           7.2558    0.5496   -0.2685 O.3     1  LIG1       -0.4526
      5 O          -2.3333   -4.2457   -3.1453 O.3     1  LIG1       -0.4951
      6 O          -5.6250   -0.2786    1.8773 O.co2   1  LIG1       -0.5495
      7 O          -6.2408   -2.4076    2.3945 O.co2   1  LIG1       -0.5495
      8 N          -1.1663    1.4367   -0.6735 N.ar    1  LIG1       -0.2556
      9 C           1.1918   -0.7114    1.1712 C.3     1  LIG1        0.0217
     10 C          -0.2839   -0.5120    0.7214 C.3     1  LIG1        0.0357
     11 C           1.8336    0.6896    1.3335 C.3     1  LIG1        0.0199
     12 C           0.9347    1.5571    0.4982 C.ar    1  LIG1       -0.0174
     13 C          -0.2128    0.8852    0.1078 C.ar    1  LIG1        0.0534
     14 C          -0.8854   -1.5406   -0.2471 C.ar    1  LIG1       -0.0344
     15 C           3.3010    0.6826    0.9043 C.ar    1  LIG1       -0.0356
     16 C           1.3199   -1.3649    2.5434 C.2     1  LIG1        0.0466
     17 C           1.1039    2.8845    0.1377 C.ar    1  LIG1       -0.0546
     18 C          -2.2811   -1.7914   -0.3135 C.ar    1  LIG1       -0.0395
     19 C          -0.0634   -2.2108   -1.1773 C.ar    1  LIG1       -0.0542
     20 C          -0.9792    2.7223   -1.0537 C.ar    1  LIG1        0.0416
     21 C           3.6944    0.8132   -0.4407 C.ar    1  LIG1       -0.0124
     22 C           0.1290    3.4772   -0.6575 C.ar    1  LIG1       -0.0401
     23 C           4.2923    0.4661    1.8920 C.ar    1  LIG1       -0.0543
     24 C          -3.3310   -1.1033    0.5600 C.3     1  LIG1       -0.0196
     25 C          -2.7822   -2.6982   -1.2820 C.ar    1  LIG1       -0.0165
     26 C          -2.0210    3.3127   -1.9672 C.3     1  LIG1       -0.0104
     27 C          -4.0726   -2.0670    1.5027 C.3     1  LIG1       -0.0003
     28 C           5.0402    0.7648   -0.7371 C.ar    1  LIG1        0.1665
     29 C          -0.5810   -3.1134   -2.1122 C.ar    1  LIG1       -0.0197
     30 C           5.6504    0.4150    1.5611 C.ar    1  LIG1       -0.0159
     31 C          -1.9445   -3.3614   -2.1745 C.ar    1  LIG1        0.1204
     32 C           5.9922    0.5738    0.2372 C.ar    1  LIG1        0.1662
     33 C          -1.8174    2.9301   -3.4378 C.3     1  LIG1       -0.0479
     34 C          -3.2417   -2.4017    2.7375 C.3     1  LIG1       -0.0570
     35 C          -0.5658    3.5585   -4.0596 C.3     1  LIG1       -0.0556
     36 C          -5.4309   -1.5221    1.9817 C.2     1  LIG1        0.0449
     37 C           6.9810    0.7093   -1.6742 C.3     1  LIG1        0.2332
     38 C          -0.4696    3.2581   -5.5471 C.3     1  LIG1       -0.0653
     39 C          -3.7321   -4.4731   -3.2581 C.3     1  LIG1        0.0788
     40 H           1.7740   -1.3017    0.4590 H       1  LIG1        0.0379
     41 H          -0.9124   -0.4591    1.6163 H       1  LIG1        0.0419
     42 H           1.7738    1.0832    2.3569 H       1  LIG1        0.0404
     43 H           1.9772    3.4402    0.4604 H       1  LIG1        0.0622
     44 H           1.0061   -2.0323   -1.2106 H       1  LIG1        0.0622
     45 H           2.9656    0.9348   -1.2353 H       1  LIG1        0.0658
     46 H           0.2372    4.5084   -0.9726 H       1  LIG1        0.0636
     47 H           3.9876    0.3007    2.9263 H       1  LIG1        0.0622
     48 H          -4.0456   -0.6338   -0.1313 H       1  LIG1        0.0319
     49 H          -2.9106   -0.2676    1.1261 H       1  LIG1        0.0319
     50 H          -3.8573   -2.8504   -1.3092 H       1  LIG1        0.0657
     51 H          -2.0498    4.4038   -1.8572 H       1  LIG1        0.0328
     52 H          -3.0044    2.9489   -1.6420 H       1  LIG1        0.0328
     53 H          -4.2946   -3.0057    0.9795 H       1  LIG1        0.0361
     54 H           0.0932   -3.6116   -2.8014 H       1  LIG1        0.0654
     55 H           6.3996    0.2325    2.3215 H       1  LIG1        0.0655
     56 H          -2.6978    3.2630   -4.0014 H       1  LIG1        0.0269
     57 H          -1.7691    1.8386   -3.5402 H       1  LIG1        0.0269
     58 H          -2.9858   -1.4994    3.3039 H       1  LIG1        0.0236
     59 H          -2.3091   -2.9023    2.4570 H       1  LIG1        0.0236
     60 H          -3.7839   -3.0725    3.4134 H       1  LIG1        0.0236
     61 H           0.3350    3.1758   -3.5689 H       1  LIG1        0.0263
     62 H          -0.5823    4.6448   -3.9135 H       1  LIG1        0.0263
     63 H           7.5306    1.5849   -2.0384 H       1  LIG1        0.1166
     64 H           7.3468   -0.1769   -2.2062 H       1  LIG1        0.1166
     65 H          -0.4279    2.1792   -5.7280 H       1  LIG1        0.0230
     66 H           0.4360    3.7077   -5.9654 H       1  LIG1        0.0230
     67 H          -1.3306    3.6653   -6.0871 H       1  LIG1        0.0230
     68 H          -3.8884   -5.1830   -4.0763 H       1  LIG1        0.0660
     69 H          -4.2634   -3.5510   -3.5163 H       1  LIG1        0.0660
     70 H          -4.1369   -4.9250   -2.3462 H       1  LIG1        0.0660
@<TRIPOS>BOND
     1     1    16   ar
     2     2    16   ar
     3     3    28    1
     4     3    37    1
     5     4    32    1
     6     4    37    1
     7     5    31    1
     8     5    39    1
     9     6    36   ar
    10     7    36   ar
    11     8    13   ar
    12     8    20   ar
    13     9    10    1
    14     9    11    1
    15     9    16    1
    16    10    13    1
    17    10    14    1
    18    11    12    1
    19    11    15    1
    20    12    13   ar
    21    12    17   ar
    22    14    18   ar
    23    14    19   ar
    24    15    21   ar
    25    15    23   ar
    26    17    22   ar
    27    18    24    1
    28    18    25   ar
    29    19    29   ar
    30    20    22   ar
    31    20    26    1
    32    21    28   ar
    33    23    30   ar
    34    24    27    1
    35    25    31   ar
    36    26    33    1
    37    27    34    1
    38    27    36    1
    39    28    32   ar
    40    29    31   ar
    41    30    32   ar
    42    33    35    1
    43    35    38    1
    44     9    40    1
    45    10    41    1
    46    11    42    1
    47    17    43    1
    48    19    44    1
    49    21    45    1
    50    22    46    1
    51    23    47    1
    52    24    48    1
    53    24    49    1
    54    25    50    1
    55    26    51    1
    56    26    52    1
    57    27    53    1
    58    29    54    1
    59    30    55    1
    60    33    56    1
    61    33    57    1
    62    34    58    1
    63    34    59    1
    64    34    60    1
    65    35    61    1
    66    35    62    1
    67    37    63    1
    68    37    64    1
    69    38    65    1
    70    38    66    1
    71    38    67    1
    72    39    68    1
    73    39    69    1
    74    39    70    1
@<TRIPOS>MOLECULE
3047752
 70 74 0 0 0
SMALL
GASTEIGER

@<TRIPOS>ATOM
      1 O           1.4836   -2.6143    2.3200 O.co2   1  LIG1       -0.5495
      2 O           1.1162   -0.6936    3.4848 O.co2   1  LIG1       -0.5495
      3 O           6.6995    1.1482    2.3141 O.3     1  LIG1       -0.4526
      4 O           7.3720    0.6710    0.0455 O.3     1  LIG1       -0.4526
      5 O          -2.6117   -4.4639   -2.7249 O.3     1  LIG1       -0.4951
      6 O          -5.3287    1.3973    0.5209 O.co2   1  LIG1       -0.5495
      7 O          -6.8951   -0.2429    0.3276 O.co2   1  LIG1       -0.5495
      8 N          -1.0314    1.4805   -0.9045 N.ar    1  LIG1       -0.2556
      9 C           1.1956   -0.6194    1.1083 C.3     1  LIG1        0.0217
     10 C          -0.2829   -0.4126    0.6470 C.3     1  LIG1        0.0357
     11 C           1.8533    0.7723    1.2579 C.3     1  LIG1        0.0199
     12 C           1.0191    1.6048    0.3285 C.ar    1  LIG1       -0.0174
     13 C          -0.1252    0.9331   -0.0737 C.ar    1  LIG1        0.0534
     14 C          -0.9373   -1.5182   -0.2062 C.ar    1  LIG1       -0.0344
     15 C           3.3339    0.7490    0.8790 C.ar    1  LIG1       -0.0356
     16 C           1.2483   -1.3771    2.4294 C.2     1  LIG1        0.0466
     17 C           1.2383    2.9084   -0.0918 C.ar    1  LIG1       -0.0546
     18 C          -2.2949   -1.4681   -0.6311 C.ar    1  LIG1       -0.0395
     19 C          -0.1892   -2.6521   -0.5916 C.ar    1  LIG1       -0.0542
     20 C          -0.8258    2.7549   -1.3082 C.ar    1  LIG1        0.0416
     21 C           4.3065    0.9804    1.8660 C.ar    1  LIG1       -0.0124
     22 C           0.2921    3.4974   -0.9230 C.ar    1  LIG1       -0.0401
     23 C           3.7484    0.4688   -0.4485 C.ar    1  LIG1       -0.0543
     24 C          -3.2858   -0.3732   -0.2223 C.3     1  LIG1       -0.0196
     25 C          -2.7751   -2.4674   -1.5145 C.ar    1  LIG1       -0.0165
     26 C          -1.9162    3.3765   -2.1404 C.3     1  LIG1       -0.0104
     27 C          -4.6182   -0.8873    0.3547 C.3     1  LIG1       -0.0003
     28 C           5.6343    0.9395    1.4926 C.ar    1  LIG1        0.1665
     29 C          -0.7053   -3.6553   -1.4185 C.ar    1  LIG1       -0.0197
     30 C           5.1014    0.4281   -0.7970 C.ar    1  LIG1       -0.0159
     31 C          -2.0016   -3.5623   -1.8947 C.ar    1  LIG1        0.1204
     32 C           6.0192    0.6701    0.1984 C.ar    1  LIG1        0.1662
     33 C          -2.9248    4.1241   -1.2656 C.3     1  LIG1       -0.0479
     34 C          -4.4523   -1.4193    1.7759 C.3     1  LIG1       -0.0570
     35 C          -4.0450    4.7347   -2.1068 C.3     1  LIG1       -0.0556
     36 C          -5.7074    0.1986    0.4100 C.2     1  LIG1        0.0449
     37 C           7.7891    0.9337    1.3993 C.3     1  LIG1        0.2332
     38 C          -5.0417    5.4907   -1.2426 C.3     1  LIG1       -0.0653
     39 C          -2.0159   -5.7533   -2.7741 C.3     1  LIG1        0.0788
     40 H           1.7660   -1.1811    0.3616 H       1  LIG1        0.0379
     41 H          -0.9137   -0.2585    1.5330 H       1  LIG1        0.0419
     42 H           1.7353    1.2048    2.2586 H       1  LIG1        0.0404
     43 H           2.1115    3.4587    0.2395 H       1  LIG1        0.0622
     44 H           0.8243   -2.8077   -0.2333 H       1  LIG1        0.0622
     45 H           4.0224    1.1665    2.8974 H       1  LIG1        0.0658
     46 H           0.4115    4.5247   -1.2475 H       1  LIG1        0.0636
     47 H           2.9998    0.2670   -1.2151 H       1  LIG1        0.0622
     48 H          -3.4825    0.2313   -1.1178 H       1  LIG1        0.0319
     49 H          -2.8385    0.2997    0.5146 H       1  LIG1        0.0319
     50 H          -3.7905   -2.3974   -1.8987 H       1  LIG1        0.0657
     51 H          -2.4268    2.5869   -2.7056 H       1  LIG1        0.0328
     52 H          -1.4724    4.0530   -2.8810 H       1  LIG1        0.0328
     53 H          -5.0227   -1.6942   -0.2676 H       1  LIG1        0.0361
     54 H          -0.0544   -4.4848   -1.6667 H       1  LIG1        0.0654
     55 H           5.4100    0.2033   -1.8101 H       1  LIG1        0.0655
     56 H          -2.4156    4.9168   -0.7031 H       1  LIG1        0.0269
     57 H          -3.3540    3.4385   -0.5240 H       1  LIG1        0.0269
     58 H          -4.0486   -0.6518    2.4456 H       1  LIG1        0.0236
     59 H          -3.7721   -2.2774    1.7948 H       1  LIG1        0.0236
     60 H          -5.4108   -1.7488    2.1912 H       1  LIG1        0.0236
     61 H          -4.5711    3.9451   -2.6558 H       1  LIG1        0.0263
     62 H          -3.6213    5.4205   -2.8498 H       1  LIG1        0.0263
     63 H           8.3840    0.0825    1.7535 H       1  LIG1        0.1166
     64 H           8.4257    1.8257    1.3987 H       1  LIG1        0.1166
     65 H          -5.5081    4.8261   -0.5083 H       1  LIG1        0.0230
     66 H          -5.8338    5.9196   -1.8643 H       1  LIG1        0.0230
     67 H          -4.5527    6.3089   -0.7041 H       1  LIG1        0.0230
     68 H          -2.6918   -6.4132   -3.3266 H       1  LIG1        0.0660
     69 H          -1.8867   -6.1763   -1.7715 H       1  LIG1        0.0660
     70 H          -1.0650   -5.7257   -3.3162 H       1  LIG1        0.0660
@<TRIPOS>BOND
     1     1    16   ar
     2     2    16   ar
     3     3    28    1
     4     3    37    1
     5     4    32    1
     6     4    37    1
     7     5    31    1
     8     5    39    1
     9     6    36   ar
    10     7    36   ar
    11     8    13   ar
    12     8    20   ar
    13     9    10    1
    14     9    11    1
    15     9    16    1
    16    10    13    1
    17    10    14    1
    18    11    12    1
    19    11    15    1
    20    12    13   ar
    21    12    17   ar
    22    14    18   ar
    23    14    19   ar
    24    15    21   ar
    25    15    23   ar
    26    17    22   ar
    27    18    24    1
    28    18    25   ar
    29    19    29   ar
    30    20    22   ar
    31    20    26    1
    32    21    28   ar
    33    23    30   ar
    34    24    27    1
    35    25    31   ar
    36    26    33    1
    37    27    34    1
    38    27    36    1
    39    28    32   ar
    40    29    31   ar
    41    30    32   ar
    42    33    35    1
    43    35    38    1
    44     9    40    1
    45    10    41    1
    46    11    42    1
    47    17    43    1
    48    19    44    1
    49    21    45    1
    50    22    46    1
    51    23    47    1
    52    24    48    1
    53    24    49    1
    54    25    50    1
    55    26    51    1
    56    26    52    1
    57    27    53    1
    58    29    54    1
    59    30    55    1
    60    33    56    1
    61    33    57    1
    62    34    58    1
    63    34    59    1
    64    34    60    1
    65    35    61    1
    66    35    62    1
    67    37    63    1
    68    37    64    1
    69    38    65    1
    70    38    66    1
    71    38    67    1
    72    39    68    1
    73    39    69    1
    74    39    70    1
@<TRIPOS>MOLECULE
3047752
 70 74 0 0 0
SMALL
GASTEIGER

@<TRIPOS>ATOM
      1 O           1.9968   -2.0887    2.8911 O.co2   1  LIG1       -0.5495
      2 O           0.4300   -0.5598    3.5128 O.co2   1  LIG1       -0.5495
      3 O           6.6355    0.3190    2.2697 O.3     1  LIG1       -0.4526
      4 O           7.2617    0.3249   -0.0608 O.3     1  LIG1       -0.4526
      5 O          -1.8725   -4.6225   -2.9342 O.3     1  LIG1       -0.4951
      6 O          -5.8985   -1.7917    0.6111 O.co2   1  LIG1       -0.5495
      7 O          -5.6847   -4.0183    0.1695 O.co2   1  LIG1       -0.5495
      8 N          -1.2158    1.4452   -0.7208 N.ar    1  LIG1       -0.2556
      9 C           1.0886   -0.6826    1.2344 C.3     1  LIG1        0.0217
     10 C          -0.3612   -0.4698    0.7205 C.3     1  LIG1        0.0357
     11 C           1.7866    0.7004    1.2849 C.3     1  LIG1        0.0199
     12 C           0.9131    1.5489    0.4023 C.ar    1  LIG1       -0.0174
     13 C          -0.2554    0.8940    0.0494 C.ar    1  LIG1        0.0534
     14 C          -0.8509   -1.5818   -0.2170 C.ar    1  LIG1       -0.0344
     15 C           3.2486    0.6222    0.8511 C.ar    1  LIG1       -0.0356
     16 C           1.1511   -1.1722    2.6766 C.2     1  LIG1        0.0466
     17 C           1.1109    2.8561   -0.0127 C.ar    1  LIG1       -0.0546
     18 C          -2.0440   -2.3190    0.0150 C.ar    1  LIG1       -0.0395
     19 C          -0.0893   -1.8825   -1.3681 C.ar    1  LIG1       -0.0542
     20 C          -1.0082    2.7133   -1.1443 C.ar    1  LIG1        0.0416
     21 C           4.2414    0.5137    1.8421 C.ar    1  LIG1       -0.0124
     22 C           0.1308    3.4495   -0.8037 C.ar    1  LIG1       -0.0401
     23 C           3.6323    0.6033   -0.5128 C.ar    1  LIG1       -0.0543
     24 C          -2.9570   -2.0033    1.2002 C.3     1  LIG1       -0.0196
     25 C          -2.3981   -3.3339   -0.9008 C.ar    1  LIG1       -0.0165
     26 C          -2.0967    3.3267   -1.9851 C.3     1  LIG1       -0.0104
     27 C          -4.0692   -3.0037    1.5701 C.3     1  LIG1       -0.0003
     28 C           5.5583    0.4233    1.4443 C.ar    1  LIG1        0.1665
     29 C          -0.4626   -2.8975   -2.2495 C.ar    1  LIG1       -0.0197
     30 C           4.9772    0.5164   -0.8872 C.ar    1  LIG1       -0.0159
     31 C          -1.6125   -3.6390   -2.0143 C.ar    1  LIG1        0.1204
     32 C           5.9158    0.4279    0.1163 C.ar    1  LIG1        0.1662
     33 C          -3.1233    4.1175   -1.1681 C.3     1  LIG1       -0.0479
     34 C          -4.5699   -2.7410    2.9943 C.3     1  LIG1       -0.0570
     35 C          -3.9463    3.2969   -0.1687 C.3     1  LIG1       -0.0556
     36 C          -5.3308   -2.9165    0.6913 C.2     1  LIG1        0.0449
     37 C           7.6951    0.1798    1.3072 C.3     1  LIG1        0.2332
     38 C          -4.7695    2.1923   -0.8139 C.3     1  LIG1       -0.0653
     39 C          -2.9763   -5.4725   -2.6340 C.3     1  LIG1        0.0788
     40 H           1.6466   -1.3845    0.6014 H       1  LIG1        0.0379
     41 H          -1.0543   -0.3340    1.5542 H       1  LIG1        0.0419
     42 H           1.7486    1.1634    2.2808 H       1  LIG1        0.0404
     43 H           2.0008    3.4021    0.2802 H       1  LIG1        0.0622
     44 H           0.8133   -1.3169   -1.5837 H       1  LIG1        0.0622
     45 H           3.9757    0.4676    2.8949 H       1  LIG1        0.0658
     46 H           0.2497    4.4722   -1.1421 H       1  LIG1        0.0636
     47 H           2.8719    0.6454   -1.2906 H       1  LIG1        0.0622
     48 H          -3.3899   -1.0099    1.0269 H       1  LIG1        0.0319
     49 H          -2.3061   -1.9346    2.0811 H       1  LIG1        0.0319
     50 H          -3.3156   -3.8857   -0.7336 H       1  LIG1        0.0657
     51 H          -2.5916    2.5419   -2.5688 H       1  LIG1        0.0328
     52 H          -1.6372    3.9958   -2.7240 H       1  LIG1        0.0328
     53 H          -3.6732   -4.0272    1.5468 H       1  LIG1        0.0361
     54 H           0.1505   -3.1092   -3.1188 H       1  LIG1        0.0654
     55 H           5.2663    0.5021   -1.9305 H       1  LIG1        0.0655
     56 H          -3.8116    4.6110   -1.8658 H       1  LIG1        0.0269
     57 H          -2.6134    4.9192   -0.6187 H       1  LIG1        0.0269
     58 H          -4.9013   -1.7045    3.1239 H       1  LIG1        0.0236
     59 H          -3.7730   -2.9288    3.7221 H       1  LIG1        0.0236
     60 H          -5.4111   -3.3961    3.2476 H       1  LIG1        0.0236
     61 H          -4.6296    3.9785    0.3525 H       1  LIG1        0.0263
     62 H          -3.2956    2.8663    0.6003 H       1  LIG1        0.0263
     63 H           8.1533   -0.8095    1.4267 H       1  LIG1        0.1166
     64 H           8.4553    0.9419    1.5131 H       1  LIG1        0.1166
     65 H          -5.4100    2.5917   -1.6065 H       1  LIG1        0.0230
     66 H          -5.4122    1.7174   -0.0657 H       1  LIG1        0.0230
     67 H          -4.1333    1.4126   -1.2426 H       1  LIG1        0.0230
     68 H          -3.0177   -6.2459   -3.4073 H       1  LIG1        0.0660
     69 H          -3.9217   -4.9214   -2.6672 H       1  LIG1        0.0660
     70 H          -2.8394   -5.9787   -1.6721 H       1  LIG1        0.0660
@<TRIPOS>BOND
     1     1    16   ar
     2     2    16   ar
     3     3    28    1
     4     3    37    1
     5     4    32    1
     6     4    37    1
     7     5    31    1
     8     5    39    1
     9     6    36   ar
    10     7    36   ar
    11     8    13   ar
    12     8    20   ar
    13     9    10    1
    14     9    11    1
    15     9    16    1
    16    10    13    1
    17    10    14    1
    18    11    12    1
    19    11    15    1
    20    12    13   ar
    21    12    17   ar
    22    14    18   ar
    23    14    19   ar
    24    15    21   ar
    25    15    23   ar
    26    17    22   ar
    27    18    24    1
    28    18    25   ar
    29    19    29   ar
    30    20    22   ar
    31    20    26    1
    32    21    28   ar
    33    23    30   ar
    34    24    27    1
    35    25    31   ar
    36    26    33    1
    37    27    34    1
    38    27    36    1
    39    28    32   ar
    40    29    31   ar
    41    30    32   ar
    42    33    35    1
    43    35    38    1
    44     9    40    1
    45    10    41    1
    46    11    42    1
    47    17    43    1
    48    19    44    1
    49    21    45    1
    50    22    46    1
    51    23    47    1
    52    24    48    1
    53    24    49    1
    54    25    50    1
    55    26    51    1
    56    26    52    1
    57    27    53    1
    58    29    54    1
    59    30    55    1
    60    33    56    1
    61    33    57    1
    62    34    58    1
    63    34    59    1
    64    34    60    1
    65    35    61    1
    66    35    62    1
    67    37    63    1
    68    37    64    1
    69    38    65    1
    70    38    66    1
    71    38    67    1
    72    39    68    1
    73    39    69    1
    74    39    70    1
@<TRIPOS>MOLECULE
3047752
 70 74 0 0 0
SMALL
GASTEIGER

@<TRIPOS>ATOM
      1 O           2.0568   -2.0571    2.8670 O.co2   1  LIG1       -0.5495
      2 O           0.4461   -0.5850    3.5005 O.co2   1  LIG1       -0.5495
      3 O           5.5536    0.7917   -2.0296 O.3     1  LIG1       -0.4526
      4 O           7.2152    0.4988   -0.3029 O.3     1  LIG1       -0.4526
      5 O          -1.8743   -4.6343   -2.9226 O.3     1  LIG1       -0.4951
      6 O          -5.8895   -1.7628    0.5849 O.co2   1  LIG1       -0.5495
      7 O          -5.6939   -3.9958    0.1679 O.co2   1  LIG1       -0.5495
      8 N          -1.2237    1.4430   -0.7226 N.ar    1  LIG1       -0.2556
      9 C           1.1021   -0.6764    1.2178 C.3     1  LIG1        0.0217
     10 C          -0.3526   -0.4702    0.7138 C.3     1  LIG1        0.0357
     11 C           1.7890    0.7118    1.2732 C.3     1  LIG1        0.0199
     12 C           0.9053    1.5584    0.3992 C.ar    1  LIG1       -0.0174
     13 C          -0.2581    0.8956    0.0441 C.ar    1  LIG1        0.0534
     14 C          -0.8466   -1.5830   -0.2205 C.ar    1  LIG1       -0.0344
     15 C           3.2529    0.6508    0.8429 C.ar    1  LIG1       -0.0356
     16 C           1.1833   -1.1688    2.6572 C.2     1  LIG1        0.0466
     17 C           1.0901    2.8705   -0.0067 C.ar    1  LIG1       -0.0546
     18 C          -2.0409   -2.3175    0.0160 C.ar    1  LIG1       -0.0395
     19 C          -0.0889   -1.8860   -1.3734 C.ar    1  LIG1       -0.0542
     20 C          -1.0249    2.7139   -1.1424 C.ar    1  LIG1        0.0416
     21 C           3.6531    0.7443   -0.5026 C.ar    1  LIG1       -0.0124
     22 C           0.1066    3.4591   -0.7965 C.ar    1  LIG1       -0.0401
     23 C           4.2399    0.4530    1.8396 C.ar    1  LIG1       -0.0543
     24 C          -2.9537   -1.9945    1.1999 C.3     1  LIG1       -0.0196
     25 C          -2.3963   -3.3368   -0.8940 C.ar    1  LIG1       -0.0165
     26 C          -2.1144    3.3213   -1.9859 C.3     1  LIG1       -0.0104
     27 C          -4.0773   -2.9828    1.5670 C.3     1  LIG1       -0.0003
     28 C           5.0013    0.6901   -0.7894 C.ar    1  LIG1        0.1665
     29 C          -0.4646   -2.9043   -2.2498 C.ar    1  LIG1       -0.0197
     30 C           5.5996    0.3925    1.5186 C.ar    1  LIG1       -0.0159
     31 C          -1.6129   -3.6463   -2.0080 C.ar    1  LIG1        0.1204
     32 C           5.9483    0.5238    0.1940 C.ar    1  LIG1        0.1662
     33 C          -3.1424    4.1131   -1.1720 C.3     1  LIG1       -0.0479
     34 C          -4.5863   -2.7064    2.9857 C.3     1  LIG1       -0.0570
     35 C          -3.9619    3.2942   -0.1682 C.3     1  LIG1       -0.0556
     36 C          -5.3307   -2.8924    0.6808 C.2     1  LIG1        0.0449
     37 C           6.9499    0.6424   -1.7119 C.3     1  LIG1        0.2332
     38 C          -4.7807    2.1834   -0.8081 C.3     1  LIG1       -0.0653
     39 C          -2.9691   -5.4912   -2.6097 C.3     1  LIG1        0.0788
     40 H           1.6622   -1.3684    0.5756 H       1  LIG1        0.0379
     41 H          -1.0396   -0.3381    1.5532 H       1  LIG1        0.0419
     42 H           1.7479    1.1693    2.2716 H       1  LIG1        0.0404
     43 H           1.9750    3.4230    0.2890 H       1  LIG1        0.0622
     44 H           0.8126   -1.3202   -1.5936 H       1  LIG1        0.0622
     45 H           2.9300    0.8536   -1.3035 H       1  LIG1        0.0658
     46 H           0.2180    4.4837   -1.1316 H       1  LIG1        0.0636
     47 H           3.9304    0.3144    2.8768 H       1  LIG1        0.0622
     48 H          -3.3762   -0.9965    1.0266 H       1  LIG1        0.0319
     49 H          -2.3032   -1.9326    2.0819 H       1  LIG1        0.0319
     50 H          -3.3135   -3.8880   -0.7230 H       1  LIG1        0.0657
     51 H          -2.6076    2.5334   -2.5666 H       1  LIG1        0.0328
     52 H          -1.6562    3.9885   -2.7271 H       1  LIG1        0.0328
     53 H          -3.6889   -4.0098    1.5539 H       1  LIG1        0.0361
     54 H           0.1457   -3.1174   -3.1206 H       1  LIG1        0.0654
     55 H           6.3442    0.2296    2.2877 H       1  LIG1        0.0655
     56 H          -3.8328    4.6015   -1.8713 H       1  LIG1        0.0269
     57 H          -2.6347    4.9189   -0.6265 H       1  LIG1        0.0269
     58 H          -4.9112   -1.6666    3.1055 H       1  LIG1        0.0236
     59 H          -3.7961   -2.8945    3.7211 H       1  LIG1        0.0236
     60 H          -5.4340   -3.3533    3.2377 H       1  LIG1        0.0236
     61 H          -4.6475    3.9757    0.3502 H       1  LIG1        0.0263
     62 H          -3.3088    2.8697    0.6024 H       1  LIG1        0.0263
     63 H           7.4865    1.5253   -2.0781 H       1  LIG1        0.1166
     64 H           7.3365   -0.2408   -2.2335 H       1  LIG1        0.1166
     65 H          -5.4225    2.5765   -1.6028 H       1  LIG1        0.0230
     66 H          -5.4217    1.7098   -0.0576 H       1  LIG1        0.0230
     67 H          -4.1415    1.4041   -1.2329 H       1  LIG1        0.0230
     68 H          -3.0090   -6.2699   -3.3778 H       1  LIG1        0.0660
     69 H          -3.9191   -4.9481   -2.6401 H       1  LIG1        0.0660
     70 H          -2.8214   -5.9901   -1.6455 H       1  LIG1        0.0660
@<TRIPOS>BOND
     1     1    16   ar
     2     2    16   ar
     3     3    28    1
     4     3    37    1
     5     4    32    1
     6     4    37    1
     7     5    31    1
     8     5    39    1
     9     6    36   ar
    10     7    36   ar
    11     8    13   ar
    12     8    20   ar
    13     9    10    1
    14     9    11    1
    15     9    16    1
    16    10    13    1
    17    10    14    1
    18    11    12    1
    19    11    15    1
    20    12    13   ar
    21    12    17   ar
    22    14    18   ar
    23    14    19   ar
    24    15    21   ar
    25    15    23   ar
    26    17    22   ar
    27    18    24    1
    28    18    25   ar
    29    19    29   ar
    30    20    22   ar
    31    20    26    1
    32    21    28   ar
    33    23    30   ar
    34    24    27    1
    35    25    31   ar
    36    26    33    1
    37    27    34    1
    38    27    36    1
    39    28    32   ar
    40    29    31   ar
    41    30    32   ar
    42    33    35    1
    43    35    38    1
    44     9    40    1
    45    10    41    1
    46    11    42    1
    47    17    43    1
    48    19    44    1
    49    21    45    1
    50    22    46    1
    51    23    47    1
    52    24    48    1
    53    24    49    1
    54    25    50    1
    55    26    51    1
    56    26    52    1
    57    27    53    1
    58    29    54    1
    59    30    55    1
    60    33    56    1
    61    33    57    1
    62    34    58    1
    63    34    59    1
    64    34    60    1
    65    35    61    1
    66    35    62    1
    67    37    63    1
    68    37    64    1
    69    38    65    1
    70    38    66    1
    71    38    67    1
    72    39    68    1
    73    39    69    1
    74    39    70    1
@<TRIPOS>MOLECULE
3047752
 70 74 0 0 0
SMALL
GASTEIGER

@<TRIPOS>ATOM
      1 O           0.9161   -0.7095    3.4730 O.co2   1  LIG1       -0.5495
      2 O           1.6119   -2.5734    2.3645 O.co2   1  LIG1       -0.5495
      3 O           6.6765    1.1802    2.2601 O.3     1  LIG1       -0.4526
      4 O           7.3262    0.6318    0.0005 O.3     1  LIG1       -0.4526
      5 O          -2.4281   -4.5641   -2.7631 O.3     1  LIG1       -0.4951
      6 O          -5.6718    0.9023    1.5335 O.co2   1  LIG1       -0.5495
      7 O          -6.3149    0.2886   -0.5643 O.co2   1  LIG1       -0.5495
      8 N          -1.0804    1.4724   -0.8778 N.ar    1  LIG1       -0.2556
      9 C           1.1628   -0.6375    1.1116 C.3     1  LIG1        0.0217
     10 C          -0.3122   -0.4341    0.6489 C.3     1  LIG1        0.0357
     11 C           1.8193    0.7546    1.2663 C.3     1  LIG1        0.0199
     12 C           0.9752    1.5942    0.3514 C.ar    1  LIG1       -0.0174
     13 C          -0.1656    0.9207   -0.0566 C.ar    1  LIG1        0.0534
     14 C          -0.9558   -1.5352   -0.2170 C.ar    1  LIG1       -0.0344
     15 C           3.2963    0.7354    0.8725 C.ar    1  LIG1       -0.0356
     16 C           1.2148   -1.3740    2.4425 C.2     1  LIG1        0.0466
     17 C           1.1819    2.9048   -0.0518 C.ar    1  LIG1       -0.0546
     18 C          -2.3226   -1.4999   -0.6119 C.ar    1  LIG1       -0.0395
     19 C          -0.1939   -2.6414   -0.6510 C.ar    1  LIG1       -0.0542
     20 C          -0.8881    2.7559   -1.2611 C.ar    1  LIG1        0.0416
     21 C           4.2789    0.9997    1.8407 C.ar    1  LIG1       -0.0124
     22 C           0.2267    3.4999   -0.8708 C.ar    1  LIG1       -0.0401
     23 C           3.6984    0.4209   -0.4526 C.ar    1  LIG1       -0.0543
     24 C          -3.3183   -0.4248   -0.1708 C.3     1  LIG1       -0.0196
     25 C          -2.8165   -2.4891   -1.5001 C.ar    1  LIG1       -0.0165
     26 C          -1.9700    3.3663   -2.1141 C.3     1  LIG1       -0.0104
     27 C          -4.6050   -0.9669    0.4808 C.3     1  LIG1       -0.0003
     28 C           5.6031    0.9480    1.4554 C.ar    1  LIG1        0.1665
     29 C          -0.7155   -3.6252   -1.4965 C.ar    1  LIG1       -0.0197
     30 C           5.0472    0.3688   -0.8122 C.ar    1  LIG1       -0.0159
     31 C          -2.0289   -3.5540   -1.9295 C.ar    1  LIG1        0.1204
     32 C           5.9753    0.6389    0.1666 C.ar    1  LIG1        0.1662
     33 C          -3.2673    3.5604   -1.3245 C.3     1  LIG1       -0.0479
     34 C          -4.3432   -1.5400    1.8679 C.3     1  LIG1       -0.0570
     35 C          -4.3683    4.1583   -2.1995 C.3     1  LIG1       -0.0556
     36 C          -5.6115    0.1974    0.4895 C.2     1  LIG1        0.0449
     37 C           7.7575    0.9311    1.3426 C.3     1  LIG1        0.2332
     38 C          -5.6784    4.2818   -1.4375 C.3     1  LIG1       -0.0653
     39 C          -3.8343   -4.7584   -2.8507 C.3     1  LIG1        0.0788
     40 H           1.7372   -1.2028    0.3726 H       1  LIG1        0.0379
     41 H          -0.9486   -0.2933    1.5327 H       1  LIG1        0.0419
     42 H           1.7127    1.1732    2.2742 H       1  LIG1        0.0404
     43 H           2.0536    3.4567    0.2817 H       1  LIG1        0.0622
     44 H           0.8302   -2.7901   -0.3225 H       1  LIG1        0.0622
     45 H           4.0064    1.2161    2.8690 H       1  LIG1        0.0658
     46 H           0.3439    4.5303   -1.1843 H       1  LIG1        0.0636
     47 H           2.9424    0.1955   -1.2046 H       1  LIG1        0.0622
     48 H          -3.5652    0.1613   -1.0662 H       1  LIG1        0.0319
     49 H          -2.8593    0.2757    0.5325 H       1  LIG1        0.0319
     50 H          -3.8403   -2.3876   -1.8476 H       1  LIG1        0.0657
     51 H          -2.1463    2.7053   -2.9717 H       1  LIG1        0.0328
     52 H          -1.6337    4.3271   -2.5226 H       1  LIG1        0.0328
     53 H          -5.0559   -1.7617   -0.1258 H       1  LIG1        0.0361
     54 H          -0.0843   -4.4548   -1.7987 H       1  LIG1        0.0654
     55 H           5.3456    0.1116   -1.8205 H       1  LIG1        0.0655
     56 H          -3.0842    4.2146   -0.4626 H       1  LIG1        0.0269
     57 H          -3.6082    2.5999   -0.9206 H       1  LIG1        0.0269
     58 H          -3.8043   -0.8317    2.5060 H       1  LIG1        0.0236
     59 H          -3.7461   -2.4561    1.8032 H       1  LIG1        0.0236
     60 H          -5.2847   -1.7907    2.3683 H       1  LIG1        0.0236
     61 H          -4.5267    3.5289   -3.0829 H       1  LIG1        0.0263
     62 H          -4.0624    5.1486   -2.5560 H       1  LIG1        0.0263
     63 H           8.3498    0.0878    1.7167 H       1  LIG1        0.1166
     64 H           8.3988    1.8192    1.3095 H       1  LIG1        0.1166
     65 H          -6.0334    3.3003   -1.1077 H       1  LIG1        0.0230
     66 H          -6.4490    4.7229   -2.0774 H       1  LIG1        0.0230
     67 H          -5.5620    4.9191   -0.5553 H       1  LIG1        0.0230
     68 H          -4.0054   -5.6964   -3.3880 H       1  LIG1        0.0660
     69 H          -4.3065   -3.9565   -3.4265 H       1  LIG1        0.0660
     70 H          -4.2891   -4.8579   -1.8588 H       1  LIG1        0.0660
@<TRIPOS>BOND
     1     1    16   ar
     2     2    16   ar
     3     3    28    1
     4     3    37    1
     5     4    32    1
     6     4    37    1
     7     5    31    1
     8     5    39    1
     9     6    36   ar
    10     7    36   ar
    11     8    13   ar
    12     8    20   ar
    13     9    10    1
    14     9    11    1
    15     9    16    1
    16    10    13    1
    17    10    14    1
    18    11    12    1
    19    11    15    1
    20    12    13   ar
    21    12    17   ar
    22    14    18   ar
    23    14    19   ar
    24    15    21   ar
    25    15    23   ar
    26    17    22   ar
    27    18    24    1
    28    18    25   ar
    29    19    29   ar
    30    20    22   ar
    31    20    26    1
    32    21    28   ar
    33    23    30   ar
    34    24    27    1
    35    25    31   ar
    36    26    33    1
    37    27    34    1
    38    27    36    1
    39    28    32   ar
    40    29    31   ar
    41    30    32   ar
    42    33    35    1
    43    35    38    1
    44     9    40    1
    45    10    41    1
    46    11    42    1
    47    17    43    1
    48    19    44    1
    49    21    45    1
    50    22    46    1
    51    23    47    1
    52    24    48    1
    53    24    49    1
    54    25    50    1
    55    26    51    1
    56    26    52    1
    57    27    53    1
    58    29    54    1
    59    30    55    1
    60    33    56    1
    61    33    57    1
    62    34    58    1
    63    34    59    1
    64    34    60    1
    65    35    61    1
    66    35    62    1
    67    37    63    1
    68    37    64    1
    69    38    65    1
    70    38    66    1
    71    38    67    1
    72    39    68    1
    73    39    69    1
    74    39    70    1
@<TRIPOS>MOLECULE
3047752
 70 74 0 0 0
SMALL
GASTEIGER

@<TRIPOS>ATOM
      1 O           2.1902   -2.0426    2.8685 O.co2   1  LIG1       -0.5495
      2 O           0.4164   -0.7625    3.4938 O.co2   1  LIG1       -0.5495
      3 O           6.6541    1.2040    2.1789 O.3     1  LIG1       -0.4526
      4 O           7.2762    0.6159   -0.0779 O.3     1  LIG1       -0.4526
      5 O          -2.1424   -4.4244   -3.0784 O.3     1  LIG1       -0.4951
      6 O          -5.8414   -1.6521    0.5519 O.co2   1  LIG1       -0.5495
      7 O          -5.7685   -3.8915    0.1341 O.co2   1  LIG1       -0.5495
      8 N          -1.1922    1.3725   -0.7180 N.ar    1  LIG1       -0.2556
      9 C           1.1142   -0.7491    1.2227 C.3     1  LIG1        0.0217
     10 C          -0.3411   -0.5333    0.7286 C.3     1  LIG1        0.0357
     11 C           1.7988    0.6438    1.2967 C.3     1  LIG1        0.0199
     12 C           0.9307    1.4889    0.4057 C.ar    1  LIG1       -0.0174
     13 C          -0.2345    0.8305    0.0571 C.ar    1  LIG1        0.0534
     14 C          -0.8640   -1.6267   -0.2132 C.ar    1  LIG1       -0.0344
     15 C           3.2623    0.6252    0.8683 C.ar    1  LIG1       -0.0356
     16 C           1.2270   -1.2487    2.6581 C.2     1  LIG1        0.0466
     17 C           1.1250    2.7925   -0.0214 C.ar    1  LIG1       -0.0546
     18 C          -2.0713   -2.3375    0.0269 C.ar    1  LIG1       -0.0395
     19 C          -0.1432   -1.9084   -1.3953 C.ar    1  LIG1       -0.0542
     20 C          -1.0081    2.6469   -1.1307 C.ar    1  LIG1        0.0416
     21 C           4.2576    0.9422    1.8092 C.ar    1  LIG1       -0.0124
     22 C           0.1343    3.3829   -0.8045 C.ar    1  LIG1       -0.0401
     23 C           3.6442    0.2830   -0.4527 C.ar    1  LIG1       -0.0543
     24 C          -2.9433   -2.0371    1.2457 C.3     1  LIG1       -0.0196
     25 C          -2.4868   -3.2974   -0.9202 C.ar    1  LIG1       -0.0165
     26 C          -2.1056    3.2420   -1.9735 C.3     1  LIG1       -0.0104
     27 C          -4.1234   -2.9739    1.5699 C.3     1  LIG1       -0.0003
     28 C           5.5741    0.9171    1.4015 C.ar    1  LIG1        0.1665
     29 C          -0.5896   -2.8538   -2.3196 C.ar    1  LIG1       -0.0197
     30 C           4.9880    0.2628   -0.8374 C.ar    1  LIG1       -0.0159
     31 C          -1.7728   -3.5430   -2.0941 C.ar    1  LIG1        0.1204
     32 C           5.9291    0.5855    0.1142 C.ar    1  LIG1        0.1662
     33 C          -3.4167    3.4776   -1.2112 C.3     1  LIG1       -0.0479
     34 C          -4.6529   -2.6935    2.9800 C.3     1  LIG1       -0.0570
     35 C          -4.1741    2.1890   -0.8714 C.3     1  LIG1       -0.0556
     36 C          -5.3546   -2.8113    0.6579 C.2     1  LIG1        0.0449
     37 C           7.7241    0.9400    1.2536 C.3     1  LIG1        0.2332
     38 C          -5.5415    2.4813   -0.2743 C.3     1  LIG1       -0.0653
     39 C          -3.5003   -4.8596   -3.0229 C.3     1  LIG1        0.0788
     40 H           1.6635   -1.4383    0.5694 H       1  LIG1        0.0379
     41 H          -1.0235   -0.3945    1.5706 H       1  LIG1        0.0419
     42 H           1.7276    1.0875    2.2998 H       1  LIG1        0.0404
     43 H           2.0170    3.3410    0.2596 H       1  LIG1        0.0622
     44 H           0.7685   -1.3611   -1.6168 H       1  LIG1        0.0622
     45 H           4.0009    1.1760    2.8378 H       1  LIG1        0.0658
     46 H           0.2522    4.4051   -1.1465 H       1  LIG1        0.0636
     47 H           2.8803    0.0193   -1.1817 H       1  LIG1        0.0622
     48 H          -3.3108   -1.0084    1.1410 H       1  LIG1        0.0319
     49 H          -2.2759   -2.0658    2.1172 H       1  LIG1        0.0319
     50 H          -3.3987   -3.8516   -0.7347 H       1  LIG1        0.0657
     51 H          -2.2811    2.5891   -2.8374 H       1  LIG1        0.0328
     52 H          -1.7666    4.2022   -2.3824 H       1  LIG1        0.0328
     53 H          -3.7837   -4.0174    1.5463 H       1  LIG1        0.0361
     54 H          -0.0229   -3.0319   -3.2269 H       1  LIG1        0.0654
     55 H           5.2757   -0.0102   -1.8447 H       1  LIG1        0.0655
     56 H          -4.0622    4.1034   -1.8407 H       1  LIG1        0.0269
     57 H          -3.2218    4.0450   -0.2927 H       1  LIG1        0.0269
     58 H          -4.9475   -1.6448    3.1022 H       1  LIG1        0.0236
     59 H          -3.8861   -2.9132    3.7306 H       1  LIG1        0.0236
     60 H          -5.5271   -3.3144    3.2068 H       1  LIG1        0.0236
     61 H          -3.6125    1.5920   -0.1465 H       1  LIG1        0.0263
     62 H          -4.2983    1.5785   -1.7731 H       1  LIG1        0.0263
     63 H           8.3226    0.1046    1.6363 H       1  LIG1        0.1166
     64 H           8.3633    1.8285    1.1977 H       1  LIG1        0.1166
     65 H          -5.4499    3.0711    0.6432 H       1  LIG1        0.0230
     66 H          -6.0516    1.5450   -0.0263 H       1  LIG1        0.0230
     67 H          -6.1690    3.0336   -0.9804 H       1  LIG1        0.0230
     68 H          -3.7085   -5.4100   -3.9456 H       1  LIG1        0.0660
     69 H          -4.1949   -4.0131   -2.9816 H       1  LIG1        0.0660
     70 H          -3.6570   -5.5481   -2.1862 H       1  LIG1        0.0660
@<TRIPOS>BOND
     1     1    16   ar
     2     2    16   ar
     3     3    28    1
     4     3    37    1
     5     4    32    1
     6     4    37    1
     7     5    31    1
     8     5    39    1
     9     6    36   ar
    10     7    36   ar
    11     8    13   ar
    12     8    20   ar
    13     9    10    1
    14     9    11    1
    15     9    16    1
    16    10    13    1
    17    10    14    1
    18    11    12    1
    19    11    15    1
    20    12    13   ar
    21    12    17   ar
    22    14    18   ar
    23    14    19   ar
    24    15    21   ar
    25    15    23   ar
    26    17    22   ar
    27    18    24    1
    28    18    25   ar
    29    19    29   ar
    30    20    22   ar
    31    20    26    1
    32    21    28   ar
    33    23    30   ar
    34    24    27    1
    35    25    31   ar
    36    26    33    1
    37    27    34    1
    38    27    36    1
    39    28    32   ar
    40    29    31   ar
    41    30    32   ar
    42    33    35    1
    43    35    38    1
    44     9    40    1
    45    10    41    1
    46    11    42    1
    47    17    43    1
    48    19    44    1
    49    21    45    1
    50    22    46    1
    51    23    47    1
    52    24    48    1
    53    24    49    1
    54    25    50    1
    55    26    51    1
    56    26    52    1
    57    27    53    1
    58    29    54    1
    59    30    55    1
    60    33    56    1
    61    33    57    1
    62    34    58    1
    63    34    59    1
    64    34    60    1
    65    35    61    1
    66    35    62    1
    67    37    63    1
    68    37    64    1
    69    38    65    1
    70    38    66    1
    71    38    67    1
    72    39    68    1
    73    39    69    1
    74    39    70    1
@<TRIPOS>MOLECULE
3047752
 70 74 0 0 0
SMALL
GASTEIGER

@<TRIPOS>ATOM
      1 O           2.0144   -2.0988    2.8792 O.co2   1  LIG1       -0.5495
      2 O           0.4576   -0.5651    3.5123 O.co2   1  LIG1       -0.5495
      3 O           6.6423    0.3241    2.2611 O.3     1  LIG1       -0.4526
      4 O           7.2703    0.3320   -0.0689 O.3     1  LIG1       -0.4526
      5 O          -1.8747   -4.6424   -2.9167 O.3     1  LIG1       -0.4951
      6 O          -5.8952   -1.7807    0.6038 O.co2   1  LIG1       -0.5495
      7 O          -5.6877   -4.0100    0.1725 O.co2   1  LIG1       -0.5495
      8 N          -1.2289    1.4353   -0.7038 N.ar    1  LIG1       -0.2556
      9 C           1.0993   -0.6898    1.2291 C.3     1  LIG1        0.0217
     10 C          -0.3546   -0.4810    0.7248 C.3     1  LIG1        0.0357
     11 C           1.7938    0.6948    1.2739 C.3     1  LIG1        0.0199
     12 C           0.9150    1.5388    0.3920 C.ar    1  LIG1       -0.0174
     13 C          -0.2575    0.8834    0.0527 C.ar    1  LIG1        0.0534
     14 C          -0.8474   -1.5943   -0.2100 C.ar    1  LIG1       -0.0344
     15 C           3.2557    0.6203    0.8399 C.ar    1  LIG1       -0.0356
     16 C           1.1706   -1.1793    2.6707 C.2     1  LIG1        0.0466
     17 C           1.1094    2.8447   -0.0280 C.ar    1  LIG1       -0.0546
     18 C          -2.0420   -2.3283    0.0245 C.ar    1  LIG1       -0.0395
     19 C          -0.0871   -1.8995   -1.3609 C.ar    1  LIG1       -0.0542
     20 C          -1.0257    2.7031   -1.1294 C.ar    1  LIG1        0.0416
     21 C           4.2483    0.5137    1.8315 C.ar    1  LIG1       -0.0124
     22 C           0.1200    3.4379   -0.8073 C.ar    1  LIG1       -0.0401
     23 C           3.6403    0.6028   -0.5236 C.ar    1  LIG1       -0.0543
     24 C          -2.9549   -2.0054    1.2077 C.3     1  LIG1       -0.0196
     25 C          -2.3974   -3.3465   -0.8870 C.ar    1  LIG1       -0.0165
     26 C          -2.1290    3.3230   -1.9468 C.3     1  LIG1       -0.0104
     27 C          -4.0755   -2.9962    1.5769 C.3     1  LIG1       -0.0003
     28 C           5.5657    0.4264    1.4349 C.ar    1  LIG1        0.1665
     29 C          -0.4622   -2.9171   -2.2385 C.ar    1  LIG1       -0.0197
     30 C           4.9858    0.5191   -0.8970 C.ar    1  LIG1       -0.0159
     31 C          -1.6129   -3.6563   -2.0000 C.ar    1  LIG1        0.1204
     32 C           5.9239    0.4321    0.1071 C.ar    1  LIG1        0.1662
     33 C          -3.0962    4.1714   -1.1153 C.3     1  LIG1       -0.0479
     34 C          -4.5825   -2.7207    2.9966 C.3     1  LIG1       -0.0570
     35 C          -3.9430    3.3406   -0.1472 C.3     1  LIG1       -0.0556
     36 C          -5.3321   -2.9074    0.6913 C.2     1  LIG1        0.0449
     37 C           7.7029    0.1865    1.2994 C.3     1  LIG1        0.2332
     38 C          -4.9631    4.2031    0.5797 C.3     1  LIG1       -0.0653
     39 C          -2.9844   -5.4850   -2.6173 C.3     1  LIG1        0.0788
     40 H           1.6555   -1.3901    0.5931 H       1  LIG1        0.0379
     41 H          -1.0420   -0.3479    1.5635 H       1  LIG1        0.0419
     42 H           1.7558    1.1603    2.2687 H       1  LIG1        0.0404
     43 H           2.0025    3.3909    0.2541 H       1  LIG1        0.0622
     44 H           0.8162   -1.3359   -1.5793 H       1  LIG1        0.0622
     45 H           3.9821    0.4670    2.8841 H       1  LIG1        0.0658
     46 H           0.2348    4.4604   -1.1478 H       1  LIG1        0.0636
     47 H           2.8803    0.6433   -1.3019 H       1  LIG1        0.0622
     48 H          -3.3802   -1.0091    1.0326 H       1  LIG1        0.0319
     49 H          -2.3050   -1.9405    2.0896 H       1  LIG1        0.0319
     50 H          -3.3150   -3.8969   -0.7170 H       1  LIG1        0.0657
     51 H          -2.6815    2.5328   -2.4702 H       1  LIG1        0.0328
     52 H          -1.6803    3.9479   -2.7293 H       1  LIG1        0.0328
     53 H          -3.6859   -4.0222    1.5625 H       1  LIG1        0.0361
     54 H           0.1501   -3.1325   -3.1074 H       1  LIG1        0.0654
     55 H           5.2757    0.5056   -1.9401 H       1  LIG1        0.0655
     56 H          -3.7647    4.7011   -1.8055 H       1  LIG1        0.0269
     57 H          -2.5445    4.9384   -0.5575 H       1  LIG1        0.0269
     58 H          -4.9076   -1.6810    3.1174 H       1  LIG1        0.0236
     59 H          -3.7910   -2.9090    3.7301 H       1  LIG1        0.0236
     60 H          -5.4298   -3.3682    3.2495 H       1  LIG1        0.0236
     61 H          -3.3033    2.8531    0.5967 H       1  LIG1        0.0263
     62 H          -4.4677    2.5494   -0.6952 H       1  LIG1        0.0263
     63 H           8.1620   -0.8023    1.4188 H       1  LIG1        0.1166
     64 H           8.4620    0.9493    1.5063 H       1  LIG1        0.1166
     65 H          -4.4694    4.9881    1.1614 H       1  LIG1        0.0230
     66 H          -5.5545    3.5909    1.2678 H       1  LIG1        0.0230
     67 H          -5.6501    4.6787   -0.1274 H       1  LIG1        0.0230
     68 H          -3.0291   -6.2591   -3.3897 H       1  LIG1        0.0660
     69 H          -3.9262   -4.9280   -2.6529 H       1  LIG1        0.0660
     70 H          -2.8522   -5.9907   -1.6545 H       1  LIG1        0.0660
@<TRIPOS>BOND
     1     1    16   ar
     2     2    16   ar
     3     3    28    1
     4     3    37    1
     5     4    32    1
     6     4    37    1
     7     5    31    1
     8     5    39    1
     9     6    36   ar
    10     7    36   ar
    11     8    13   ar
    12     8    20   ar
    13     9    10    1
    14     9    11    1
    15     9    16    1
    16    10    13    1
    17    10    14    1
    18    11    12    1
    19    11    15    1
    20    12    13   ar
    21    12    17   ar
    22    14    18   ar
    23    14    19   ar
    24    15    21   ar
    25    15    23   ar
    26    17    22   ar
    27    18    24    1
    28    18    25   ar
    29    19    29   ar
    30    20    22   ar
    31    20    26    1
    32    21    28   ar
    33    23    30   ar
    34    24    27    1
    35    25    31   ar
    36    26    33    1
    37    27    34    1
    38    27    36    1
    39    28    32   ar
    40    29    31   ar
    41    30    32   ar
    42    33    35    1
    43    35    38    1
    44     9    40    1
    45    10    41    1
    46    11    42    1
    47    17    43    1
    48    19    44    1
    49    21    45    1
    50    22    46    1
    51    23    47    1
    52    24    48    1
    53    24    49    1
    54    25    50    1
    55    26    51    1
    56    26    52    1
    57    27    53    1
    58    29    54    1
    59    30    55    1
    60    33    56    1
    61    33    57    1
    62    34    58    1
    63    34    59    1
    64    34    60    1
    65    35    61    1
    66    35    62    1
    67    37    63    1
    68    37    64    1
    69    38    65    1
    70    38    66    1
    71    38    67    1
    72    39    68    1
    73    39    69    1
    74    39    70    1
@<TRIPOS>MOLECULE
3047752
 70 74 0 0 0
SMALL
GASTEIGER

@<TRIPOS>ATOM
      1 O           2.0528   -2.1333    2.7881 O.co2   1  LIG1       -0.5495
      2 O           0.4332   -0.6896    3.4724 O.co2   1  LIG1       -0.5495
      3 O           6.6193    0.2603    2.2631 O.3     1  LIG1       -0.4526
      4 O           7.2556    0.3853   -0.0611 O.3     1  LIG1       -0.4526
      5 O          -1.8992   -4.6448   -2.9292 O.3     1  LIG1       -0.4951
      6 O          -5.8511   -1.7583    0.5816 O.co2   1  LIG1       -0.5495
      7 O          -5.7030   -3.9958    0.1715 O.co2   1  LIG1       -0.5495
      8 N          -1.2246    1.4545   -0.7242 N.ar    1  LIG1       -0.2556
      9 C           1.0818   -0.7042    1.1881 C.3     1  LIG1        0.0217
     10 C          -0.3750   -0.4783    0.6992 C.3     1  LIG1        0.0357
     11 C           1.7730    0.6805    1.2771 C.3     1  LIG1        0.0199
     12 C           0.8983    1.5446    0.4100 C.ar    1  LIG1       -0.0174
     13 C          -0.2689    0.8937    0.0443 C.ar    1  LIG1        0.0534
     14 C          -0.8803   -1.5801   -0.2414 C.ar    1  LIG1       -0.0344
     15 C           3.2374    0.6233    0.8465 C.ar    1  LIG1       -0.0356
     16 C           1.1711   -1.2424    2.6100 C.2     1  LIG1        0.0466
     17 C           1.0985    2.8571    0.0129 C.ar    1  LIG1       -0.0546
     18 C          -2.0475   -2.3469    0.0246 C.ar    1  LIG1       -0.0395
     19 C          -0.1543   -1.8477   -1.4230 C.ar    1  LIG1       -0.0542
     20 C          -1.0131    2.7273   -1.1324 C.ar    1  LIG1        0.0416
     21 C           4.2263    0.4700    1.8353 C.ar    1  LIG1       -0.0124
     22 C           0.1241    3.4596   -0.7778 C.ar    1  LIG1       -0.0401
     23 C           3.6278    0.6707   -0.5152 C.ar    1  LIG1       -0.0543
     24 C          -2.9294   -2.0512    1.2375 C.3     1  LIG1       -0.0196
     25 C          -2.3979   -3.3746   -0.8776 C.ar    1  LIG1       -0.0165
     26 C          -2.1034    3.3557   -1.9598 C.3     1  LIG1       -0.0104
     27 C          -4.0763   -3.0173    1.5838 C.3     1  LIG1       -0.0003
     28 C           5.5452    0.4031    1.4394 C.ar    1  LIG1        0.1665
     29 C          -0.5306   -2.8668   -2.2978 C.ar    1  LIG1       -0.0197
     30 C           4.9744    0.6094   -0.8874 C.ar    1  LIG1       -0.0159
     31 C          -1.6419   -3.6514   -2.0191 C.ar    1  LIG1        0.1204
     32 C           5.9085    0.4749    0.1147 C.ar    1  LIG1        0.1662
     33 C          -3.0873    4.1846   -1.1288 C.3     1  LIG1       -0.0479
     34 C          -4.6010   -2.7370    2.9981 C.3     1  LIG1       -0.0570
     35 C          -3.9179    3.3367   -0.1611 C.3     1  LIG1       -0.0556
     36 C          -5.3207   -2.9006    0.6832 C.2     1  LIG1        0.0449
     37 C           7.6820    0.1648    1.2991 C.3     1  LIG1        0.2332
     38 C          -4.9403    4.1816    0.5820 C.3     1  LIG1       -0.0653
     39 C          -2.9038   -5.5808   -2.5498 C.3     1  LIG1        0.0788
     40 H           1.6338   -1.3777    0.5193 H       1  LIG1        0.0379
     41 H          -1.0565   -0.3497    1.5437 H       1  LIG1        0.0419
     42 H           1.7266    1.1171    2.2847 H       1  LIG1        0.0404
     43 H           1.9875    3.3990    0.3162 H       1  LIG1        0.0622
     44 H           0.7228   -1.2540   -1.6661 H       1  LIG1        0.0622
     45 H           3.9560    0.3707    2.8834 H       1  LIG1        0.0658
     46 H           0.2446    4.4862   -1.1035 H       1  LIG1        0.0636
     47 H           2.8712    0.7464   -1.2943 H       1  LIG1        0.0622
     48 H          -3.3292   -1.0368    1.1137 H       1  LIG1        0.0319
     49 H          -2.2605   -2.0417    2.1082 H       1  LIG1        0.0319
     50 H          -3.2899   -3.9576   -0.6799 H       1  LIG1        0.0657
     51 H          -2.6437    2.5712   -2.5046 H       1  LIG1        0.0328
     52 H          -1.6449    3.9950   -2.7248 H       1  LIG1        0.0328
     53 H          -3.7102   -4.0517    1.5710 H       1  LIG1        0.0361
     54 H           0.0531   -3.0525   -3.1926 H       1  LIG1        0.0654
     55 H           5.2680    0.6487   -1.9287 H       1  LIG1        0.0655
     56 H          -3.7649    4.7035   -1.8185 H       1  LIG1        0.0269
     57 H          -2.5491    4.9601   -0.5699 H       1  LIG1        0.0269
     58 H          -4.9104   -1.6924    3.1168 H       1  LIG1        0.0236
     59 H          -3.8246   -2.9411    3.7427 H       1  LIG1        0.0236
     60 H          -5.4635   -3.3700    3.2355 H       1  LIG1        0.0236
     61 H          -3.2681    2.8509    0.5746 H       1  LIG1        0.0263
     62 H          -4.4374    2.5438   -0.7118 H       1  LIG1        0.0263
     63 H           8.1327   -0.8328    1.3674 H       1  LIG1        0.1166
     64 H           8.4466    0.9093    1.5481 H       1  LIG1        0.1166
     65 H          -4.4495    4.9675    1.1646 H       1  LIG1        0.0230
     66 H          -5.5165    3.5568    1.2720 H       1  LIG1        0.0230
     67 H          -5.6402    4.6541   -0.1142 H       1  LIG1        0.0230
     68 H          -2.9305   -6.3648   -3.3136 H       1  LIG1        0.0660
     69 H          -3.8932   -5.1128   -2.5224 H       1  LIG1        0.0660
     70 H          -2.6605   -6.0619   -1.5957 H       1  LIG1        0.0660
@<TRIPOS>BOND
     1     1    16   ar
     2     2    16   ar
     3     3    28    1
     4     3    37    1
     5     4    32    1
     6     4    37    1
     7     5    31    1
     8     5    39    1
     9     6    36   ar
    10     7    36   ar
    11     8    13   ar
    12     8    20   ar
    13     9    10    1
    14     9    11    1
    15     9    16    1
    16    10    13    1
    17    10    14    1
    18    11    12    1
    19    11    15    1
    20    12    13   ar
    21    12    17   ar
    22    14    18   ar
    23    14    19   ar
    24    15    21   ar
    25    15    23   ar
    26    17    22   ar
    27    18    24    1
    28    18    25   ar
    29    19    29   ar
    30    20    22   ar
    31    20    26    1
    32    21    28   ar
    33    23    30   ar
    34    24    27    1
    35    25    31   ar
    36    26    33    1
    37    27    34    1
    38    27    36    1
    39    28    32   ar
    40    29    31   ar
    41    30    32   ar
    42    33    35    1
    43    35    38    1
    44     9    40    1
    45    10    41    1
    46    11    42    1
    47    17    43    1
    48    19    44    1
    49    21    45    1
    50    22    46    1
    51    23    47    1
    52    24    48    1
    53    24    49    1
    54    25    50    1
    55    26    51    1
    56    26    52    1
    57    27    53    1
    58    29    54    1
    59    30    55    1
    60    33    56    1
    61    33    57    1
    62    34    58    1
    63    34    59    1
    64    34    60    1
    65    35    61    1
    66    35    62    1
    67    37    63    1
    68    37    64    1
    69    38    65    1
    70    38    66    1
    71    38    67    1
    72    39    68    1
    73    39    69    1
    74    39    70    1
