@<TRIPOS>MOLECULE
16004692
 52 54 0 0 0
SMALL
GASTEIGER

@<TRIPOS>ATOM
      1 BR         -0.4502   -4.9136   -1.4216 Br      1  LIG1       -0.0503
      2 BR          2.1170    8.4867   -1.8280 Br      1  LIG1       -0.0472
      3 S           4.7696   -0.4135    0.1822 S.O2    1  LIG1        0.1104
      4 O          -0.5355    1.7412    0.0962 O.3     1  LIG1       -0.4724
      5 O           5.8868    0.4051    0.5894 O.2     1  LIG1       -0.1381
      6 O           3.8167   -0.9666    1.1053 O.2     1  LIG1       -0.1381
      7 O          -1.7153    4.3722    0.1133 O.3     1  LIG1       -0.4590
      8 N           5.3639   -1.6907   -0.7253 N.3     1  LIG1       -0.1771
      9 N           3.9725    0.3955   -1.0586 N.pl3   1  LIG1       -0.1889
     10 N           3.4437    2.4729   -0.3553 N.ar    1  LIG1       -0.2186
     11 N           1.2962    3.1171    0.3913 N.ar    1  LIG1       -0.2008
     12 N          -0.5948    5.3705   -1.6282 N.ar    1  LIG1       -0.2022
     13 N          -0.3584    6.2271    0.5916 N.ar    1  LIG1       -0.2022
     14 C           6.3692   -1.4066   -1.7560 C.3     1  LIG1        0.0185
     15 C           1.6180    0.8462   -0.3968 C.ar    1  LIG1        0.0848
     16 C           2.9377    1.2497   -0.5883 C.ar    1  LIG1        0.1532
     17 C           6.8278   -2.7209   -2.3809 C.3     1  LIG1       -0.0416
     18 C           1.1036   -0.5189   -0.6719 C.ar    1  LIG1       -0.0094
     19 C           0.8348    1.8874    0.0911 C.ar    1  LIG1        0.2276
     20 C           7.8969   -2.4910   -3.4371 C.3     1  LIG1       -0.0641
     21 C           0.2149   -1.1525    0.2212 C.ar    1  LIG1       -0.0527
     22 C           1.4956   -1.2537   -1.8071 C.ar    1  LIG1       -0.0527
     23 C          -1.2095    2.2724    1.2442 C.3     1  LIG1        0.1252
     24 C          -0.2604   -2.4495   -0.0055 C.ar    1  LIG1       -0.0472
     25 C           1.0427   -2.5616   -2.0280 C.ar    1  LIG1       -0.0472
     26 C           2.5840    3.3518    0.1508 C.ar    1  LIG1        0.1219
     27 C          -1.2972    3.7996    1.3528 C.3     1  LIG1        0.1267
     28 C           0.1642   -3.1514   -1.1255 C.ar    1  LIG1        0.0179
     29 C          -0.8479    5.3538   -0.3103 C.ar    1  LIG1        0.3180
     30 C           0.2787    6.3095   -2.0482 C.ar    1  LIG1        0.0483
     31 C           0.5112    7.1415    0.1139 C.ar    1  LIG1        0.0483
     32 C           0.8764    7.2219   -1.2100 C.ar    1  LIG1        0.0543
     33 H           4.6028   -2.3186   -0.9894 H       1  LIG1        0.1493
     34 H           4.6740    1.0145   -1.4676 H       1  LIG1        0.1763
     35 H           7.2254   -0.8896   -1.3117 H       1  LIG1        0.0442
     36 H           5.9361   -0.7699   -2.5346 H       1  LIG1        0.0442
     37 H           5.9728   -3.2338   -2.8374 H       1  LIG1        0.0275
     38 H           7.2207   -3.3890   -1.6049 H       1  LIG1        0.0275
     39 H           7.5285   -1.8362   -4.2335 H       1  LIG1        0.0230
     40 H           8.1939   -3.4422   -3.8897 H       1  LIG1        0.0230
     41 H           8.7880   -2.0305   -2.9987 H       1  LIG1        0.0230
     42 H          -0.1143   -0.6435    1.1247 H       1  LIG1        0.0624
     43 H           2.1668   -0.8163   -2.5433 H       1  LIG1        0.0624
     44 H          -0.7833    1.8439    2.1598 H       1  LIG1        0.0731
     45 H          -2.2334    1.8865    1.1710 H       1  LIG1        0.0731
     46 H          -0.9501   -2.8976    0.7052 H       1  LIG1        0.0629
     47 H           1.3799   -3.1052   -2.9063 H       1  LIG1        0.0629
     48 H           2.9578    4.3435    0.3776 H       1  LIG1        0.1049
     49 H          -2.0533    4.0548    2.1053 H       1  LIG1        0.0732
     50 H          -0.3502    4.1913    1.7398 H       1  LIG1        0.0732
     51 H           0.4871    6.2927   -3.1140 H       1  LIG1        0.0843
     52 H           0.9173    7.8187    0.8594 H       1  LIG1        0.0843
@<TRIPOS>BOND
     1     1    28    1
     2     2    32    1
     3     3     5    2
     4     3     6    2
     5     3     8    1
     6     3     9    1
     7     4    19    1
     8     4    23    1
     9     7    27    1
    10     7    29    1
    11     8    14    1
    12     9    16    1
    13    10    16   ar
    14    10    26   ar
    15    11    19   ar
    16    11    26   ar
    17    12    29   ar
    18    12    30   ar
    19    13    29   ar
    20    13    31   ar
    21    14    17    1
    22    15    16   ar
    23    15    18    1
    24    15    19   ar
    25    17    20    1
    26    18    21   ar
    27    18    22   ar
    28    21    24   ar
    29    22    25   ar
    30    23    27    1
    31    24    28   ar
    32    25    28   ar
    33    30    32   ar
    34    31    32   ar
    35     8    33    1
    36     9    34    1
    37    14    35    1
    38    14    36    1
    39    17    37    1
    40    17    38    1
    41    20    39    1
    42    20    40    1
    43    20    41    1
    44    21    42    1
    45    22    43    1
    46    23    44    1
    47    23    45    1
    48    24    46    1
    49    25    47    1
    50    26    48    1
    51    27    49    1
    52    27    50    1
    53    30    51    1
    54    31    52    1
@<TRIPOS>MOLECULE
16004692
 52 54 0 0 0
SMALL
GASTEIGER

@<TRIPOS>ATOM
      1 BR         -0.4747   -4.9713   -1.3765 Br      1  LIG1       -0.0503
      2 BR          2.0986    8.5183   -1.7835 Br      1  LIG1       -0.0472
      3 S           4.6691   -0.4914    0.2838 S.O2    1  LIG1        0.1104
      4 O          -0.6303    1.7604   -0.0871 O.3     1  LIG1       -0.4724
      5 O           3.8472   -1.6332    0.6068 O.2     1  LIG1       -0.1381
      6 O           6.0492   -0.6267   -0.1142 O.2     1  LIG1       -0.1381
      7 O          -1.7925    4.4177    0.0670 O.3     1  LIG1       -0.4590
      8 N           4.6445    0.5624    1.5767 N.3     1  LIG1       -0.1771
      9 N           3.9573    0.3883   -0.9464 N.pl3   1  LIG1       -0.1889
     10 N           3.3635    2.4749   -0.4304 N.ar    1  LIG1       -0.2186
     11 N           1.1843    3.1465    0.1654 N.ar    1  LIG1       -0.2008
     12 N          -0.6834    5.4617   -1.6540 N.ar    1  LIG1       -0.2022
     13 N          -0.3874    6.2239    0.5929 N.ar    1  LIG1       -0.2022
     14 C           3.5433    0.4556    2.5385 C.3     1  LIG1        0.0185
     15 C           1.5413    0.8378   -0.4967 C.ar    1  LIG1        0.0848
     16 C           2.8700    1.2342   -0.6353 C.ar    1  LIG1        0.1532
     17 C           3.5201    1.6718    3.4564 C.3     1  LIG1       -0.0416
     18 C           1.0386   -0.5412   -0.7337 C.ar    1  LIG1       -0.0094
     19 C           0.7384    1.8996   -0.0859 C.ar    1  LIG1        0.2276
     20 C           2.3400    1.6054    4.4148 C.3     1  LIG1       -0.0641
     21 C           0.0539   -1.1181    0.0955 C.ar    1  LIG1       -0.0527
     22 C           1.5366   -1.3477   -1.7746 C.ar    1  LIG1       -0.0527
     23 C          -1.2974    2.2568    1.0828 C.3     1  LIG1        0.1252
     24 C          -0.4106   -2.4247   -0.1031 C.ar    1  LIG1       -0.0472
     25 C           1.0976   -2.6658   -1.9620 C.ar    1  LIG1       -0.0472
     26 C           2.4729    3.3834   -0.0429 C.ar    1  LIG1        0.1219
     27 C          -1.3573    3.7790    1.2666 C.3     1  LIG1        0.1267
     28 C           0.1229   -3.1966   -1.1261 C.ar    1  LIG1        0.0179
     29 C          -0.9150    5.4000   -0.3343 C.ar    1  LIG1        0.3180
     30 C           0.2044    6.3952   -2.0544 C.ar    1  LIG1        0.0483
     31 C           0.4912    7.1396    0.1333 C.ar    1  LIG1        0.0483
     32 C           0.8365    7.2616   -1.1927 C.ar    1  LIG1        0.0543
     33 H           5.0327    1.4801    1.3674 H       1  LIG1        0.1493
     34 H           4.6928    0.9303   -1.3924 H       1  LIG1        0.1763
     35 H           3.6833   -0.4545    3.1323 H       1  LIG1        0.0442
     36 H           2.5825    0.3759    2.0269 H       1  LIG1        0.0442
     37 H           3.4510    2.5920    2.8655 H       1  LIG1        0.0275
     38 H           4.4545    1.7291    4.0271 H       1  LIG1        0.0275
     39 H           1.3917    1.5993    3.8666 H       1  LIG1        0.0230
     40 H           2.3404    2.4726    5.0815 H       1  LIG1        0.0230
     41 H           2.3847    0.7012    5.0301 H       1  LIG1        0.0230
     42 H          -0.3680   -0.5615    0.9279 H       1  LIG1        0.0624
     43 H           2.2980   -0.9712   -2.4550 H       1  LIG1        0.0624
     44 H          -0.8779    1.7815    1.9786 H       1  LIG1        0.0731
     45 H          -2.3280    1.8927    0.9943 H       1  LIG1        0.0731
     46 H          -1.1763   -2.8271    0.5546 H       1  LIG1        0.0629
     47 H           1.5335   -3.2667   -2.7561 H       1  LIG1        0.0629
     48 H           2.8258    4.3939    0.1245 H       1  LIG1        0.1049
     49 H          -2.0937    4.0085    2.0465 H       1  LIG1        0.0732
     50 H          -0.3966    4.1370    1.6532 H       1  LIG1        0.0732
     51 H           0.3962    6.4120   -3.1233 H       1  LIG1        0.0843
     52 H           0.9237    7.7810    0.8958 H       1  LIG1        0.0843
@<TRIPOS>BOND
     1     1    28    1
     2     2    32    1
     3     3     5    2
     4     3     6    2
     5     3     8    1
     6     3     9    1
     7     4    19    1
     8     4    23    1
     9     7    27    1
    10     7    29    1
    11     8    14    1
    12     9    16    1
    13    10    16   ar
    14    10    26   ar
    15    11    19   ar
    16    11    26   ar
    17    12    29   ar
    18    12    30   ar
    19    13    29   ar
    20    13    31   ar
    21    14    17    1
    22    15    16   ar
    23    15    18    1
    24    15    19   ar
    25    17    20    1
    26    18    21   ar
    27    18    22   ar
    28    21    24   ar
    29    22    25   ar
    30    23    27    1
    31    24    28   ar
    32    25    28   ar
    33    30    32   ar
    34    31    32   ar
    35     8    33    1
    36     9    34    1
    37    14    35    1
    38    14    36    1
    39    17    37    1
    40    17    38    1
    41    20    39    1
    42    20    40    1
    43    20    41    1
    44    21    42    1
    45    22    43    1
    46    23    44    1
    47    23    45    1
    48    24    46    1
    49    25    47    1
    50    26    48    1
    51    27    49    1
    52    27    50    1
    53    30    51    1
    54    31    52    1
@<TRIPOS>MOLECULE
16004692
 52 54 0 0 0
SMALL
GASTEIGER

@<TRIPOS>ATOM
      1 BR         -0.4852   -4.9667   -1.3927 Br      1  LIG1       -0.0503
      2 BR          2.0846    8.5317   -1.7896 Br      1  LIG1       -0.0472
      3 S           4.6622   -0.5164    0.2969 S.O2    1  LIG1        0.1104
      4 O          -0.6216    1.7579   -0.0983 O.3     1  LIG1       -0.4724
      5 O           3.8306   -1.6488    0.6178 O.2     1  LIG1       -0.1381
      6 O           6.0423   -0.6654   -0.0967 O.2     1  LIG1       -0.1381
      7 O          -1.7865    4.4128    0.0621 O.3     1  LIG1       -0.4590
      8 N           4.6438    0.5391    1.5879 N.3     1  LIG1       -0.1771
      9 N           3.9636    0.3662   -0.9367 N.pl3   1  LIG1       -0.1889
     10 N           3.3734    2.4612   -0.4302 N.ar    1  LIG1       -0.2186
     11 N           1.1961    3.1417    0.1538 N.ar    1  LIG1       -0.2008
     12 N          -0.3833    6.2203    0.5892 N.ar    1  LIG1       -0.2022
     13 N          -0.6880    5.4666   -1.6594 N.ar    1  LIG1       -0.2022
     14 C           3.5376    0.4484    2.5463 C.3     1  LIG1        0.0185
     15 C           1.5491    0.8293   -0.4992 C.ar    1  LIG1        0.0848
     16 C           2.8799    1.2213   -0.6322 C.ar    1  LIG1        0.1532
     17 C           3.5269    1.6700    3.4579 C.3     1  LIG1       -0.0416
     18 C           1.0422   -0.5449   -0.7387 C.ar    1  LIG1       -0.0094
     19 C           0.7478    1.8956   -0.0946 C.ar    1  LIG1        0.2276
     20 C           2.3489    1.6207    4.4192 C.3     1  LIG1       -0.0641
     21 C           0.0711   -1.1267    0.1024 C.ar    1  LIG1       -0.0527
     22 C           1.5233   -1.3423   -1.7948 C.ar    1  LIG1       -0.0527
     23 C          -1.2884    2.2510    1.0732 C.3     1  LIG1        0.1252
     24 C          -0.3967   -2.4310   -0.0984 C.ar    1  LIG1       -0.0472
     25 C           1.0792   -2.6576   -1.9861 C.ar    1  LIG1       -0.0472
     26 C           2.4870    3.3730   -0.0494 C.ar    1  LIG1        0.1219
     27 C          -1.3478    3.7729    1.2597 C.3     1  LIG1        0.1267
     28 C           0.1183   -3.1945   -1.1378 C.ar    1  LIG1        0.0179
     29 C          -0.9129    5.3983   -0.3384 C.ar    1  LIG1        0.3180
     30 C           0.4909    7.1401    0.1293 C.ar    1  LIG1        0.0483
     31 C           0.1954    6.4042   -2.0602 C.ar    1  LIG1        0.0483
     32 C           0.8291    7.2687   -1.1979 C.ar    1  LIG1        0.0543
     33 H           5.0435    1.4516    1.3793 H       1  LIG1        0.1493
     34 H           4.7047    0.9061   -1.3801 H       1  LIG1        0.1763
     35 H           3.6653   -0.4603    3.1449 H       1  LIG1        0.0442
     36 H           2.5770    0.3775    2.0323 H       1  LIG1        0.0442
     37 H           3.4648    2.5876    2.8612 H       1  LIG1        0.0275
     38 H           4.4630    1.7227    4.0257 H       1  LIG1        0.0275
     39 H           1.3990    1.6172    3.8740 H       1  LIG1        0.0230
     40 H           2.3577    2.4935    5.0790 H       1  LIG1        0.0230
     41 H           2.3887    0.7214    5.0425 H       1  LIG1        0.0230
     42 H          -0.3359   -0.5748    0.9458 H       1  LIG1        0.0624
     43 H           2.2740   -0.9591   -2.4830 H       1  LIG1        0.0624
     44 H          -0.8682    1.7738    1.9678 H       1  LIG1        0.0731
     45 H          -2.3188    1.8869    0.9842 H       1  LIG1        0.0731
     46 H          -1.1509   -2.8392    0.5691 H       1  LIG1        0.0629
     47 H           1.4997   -3.2518   -2.7930 H       1  LIG1        0.0629
     48 H           2.8426    4.3835    0.1156 H       1  LIG1        0.1049
     49 H          -2.0820    4.0009    2.0421 H       1  LIG1        0.0732
     50 H          -0.3859    4.1302    1.6437 H       1  LIG1        0.0732
     51 H           0.9255    7.7794    0.8924 H       1  LIG1        0.0843
     52 H           0.3815    6.4262   -3.1298 H       1  LIG1        0.0843
@<TRIPOS>BOND
     1     1    28    1
     2     2    32    1
     3     3     5    2
     4     3     6    2
     5     3     8    1
     6     3     9    1
     7     4    19    1
     8     4    23    1
     9     7    27    1
    10     7    29    1
    11     8    14    1
    12     9    16    1
    13    10    16   ar
    14    10    26   ar
    15    11    19   ar
    16    11    26   ar
    17    12    29   ar
    18    12    30   ar
    19    13    29   ar
    20    13    31   ar
    21    14    17    1
    22    15    16   ar
    23    15    18    1
    24    15    19   ar
    25    17    20    1
    26    18    21   ar
    27    18    22   ar
    28    21    24   ar
    29    22    25   ar
    30    23    27    1
    31    24    28   ar
    32    25    28   ar
    33    30    32   ar
    34    31    32   ar
    35     8    33    1
    36     9    34    1
    37    14    35    1
    38    14    36    1
    39    17    37    1
    40    17    38    1
    41    20    39    1
    42    20    40    1
    43    20    41    1
    44    21    42    1
    45    22    43    1
    46    23    44    1
    47    23    45    1
    48    24    46    1
    49    25    47    1
    50    26    48    1
    51    27    49    1
    52    27    50    1
    53    30    51    1
    54    31    52    1
@<TRIPOS>MOLECULE
16004692
 52 54 0 0 0
SMALL
GASTEIGER

@<TRIPOS>ATOM
      1 BR         -0.3242   -5.1003   -1.1924 Br      1  LIG1       -0.0503
      2 BR          2.3397    8.6868    4.2612 Br      1  LIG1       -0.0472
      3 S           4.4961   -0.2553    0.2140 S.O2    1  LIG1        0.1104
      4 O          -0.8371    1.7423   -0.2033 O.3     1  LIG1       -0.4724
      5 O           3.7259   -1.4239    0.5571 O.2     1  LIG1       -0.1381
      6 O           5.9001   -0.3396   -0.1158 O.2     1  LIG1       -0.1381
      7 O           0.3925    3.4566    2.2343 O.3     1  LIG1       -0.4590
      8 N           4.3623    0.8577    1.4423 N.3     1  LIG1       -0.1771
      9 N           3.8058    0.5080   -1.0970 N.pl3   1  LIG1       -0.1889
     10 N           3.0704    2.6038   -0.9413 N.ar    1  LIG1       -0.2186
     11 N           0.8358    3.2377   -0.5414 N.ar    1  LIG1       -0.2008
     12 N           2.0754    5.0001    2.4101 N.ar    1  LIG1       -0.2022
     13 N          -0.0988    5.4914    3.2773 N.ar    1  LIG1       -0.2022
     14 C           3.2497    0.7408    2.3898 C.3     1  LIG1        0.0185
     15 C           1.3586    0.8657   -0.7082 C.ar    1  LIG1        0.0848
     16 C           2.6621    1.3182   -0.9120 C.ar    1  LIG1        0.1532
     17 C           3.4604    1.7068    3.5501 C.3     1  LIG1       -0.0416
     18 C           0.9421   -0.5585   -0.8158 C.ar    1  LIG1       -0.0094
     19 C           0.4988    1.9329   -0.4527 C.ar    1  LIG1        0.2276
     20 C           2.3618    1.5567    4.5911 C.3     1  LIG1       -0.0641
     21 C           0.0025   -1.1444    0.0525 C.ar    1  LIG1       -0.0527
     22 C           1.4762   -1.3996   -1.8139 C.ar    1  LIG1       -0.0527
     23 C          -1.2103    2.0303    1.1608 C.3     1  LIG1        0.1252
     24 C          -0.3875   -2.4857   -0.0655 C.ar    1  LIG1       -0.0472
     25 C           1.1157   -2.7501   -1.9214 C.ar    1  LIG1       -0.0472
     26 C           2.1158    3.5117   -0.7668 C.ar    1  LIG1        0.1219
     27 C          -0.9384    3.4411    1.7025 C.3     1  LIG1        0.1267
     28 C           0.1792   -3.2854   -1.0478 C.ar    1  LIG1        0.0179
     29 C           0.7787    4.7167    2.6179 C.ar    1  LIG1        0.3180
     30 C           2.5052    6.1831    2.8972 C.ar    1  LIG1        0.0483
     31 C           0.3901    6.6600    3.7472 C.ar    1  LIG1        0.0483
     32 C           1.6972    7.0594    3.5834 C.ar    1  LIG1        0.0543
     33 H           4.7131    1.7862    1.2179 H       1  LIG1        0.1493
     34 H           4.5323    1.0620   -1.5473 H       1  LIG1        0.1763
     35 H           3.2036   -0.2816    2.7809 H       1  LIG1        0.0442
     36 H           2.3013    0.9693    1.9008 H       1  LIG1        0.0442
     37 H           3.4748    2.7363    3.1770 H       1  LIG1        0.0275
     38 H           4.4343    1.5282    4.0208 H       1  LIG1        0.0275
     39 H           1.3718    1.6960    4.1461 H       1  LIG1        0.0230
     40 H           2.4856    2.2979    5.3861 H       1  LIG1        0.0230
     41 H           2.3909    0.5611    5.0460 H       1  LIG1        0.0230
     42 H          -0.4472   -0.5774    0.8570 H       1  LIG1        0.0624
     43 H           2.2081   -1.0210   -2.5254 H       1  LIG1        0.0624
     44 H          -0.7521    1.2876    1.8236 H       1  LIG1        0.0731
     45 H          -2.2931    1.8636    1.1912 H       1  LIG1        0.0731
     46 H          -1.1247   -2.8909    0.6228 H       1  LIG1        0.0629
     47 H           1.5800   -3.3685   -2.6844 H       1  LIG1        0.0629
     48 H           2.4023    4.5567   -0.8001 H       1  LIG1        0.1049
     49 H          -1.0680    4.1993    0.9213 H       1  LIG1        0.0732
     50 H          -1.6434    3.6299    2.5212 H       1  LIG1        0.0732
     51 H           3.5544    6.3985    2.7154 H       1  LIG1        0.0843
     52 H          -0.3283    7.2743    4.2826 H       1  LIG1        0.0843
@<TRIPOS>BOND
     1     1    28    1
     2     2    32    1
     3     3     5    2
     4     3     6    2
     5     3     8    1
     6     3     9    1
     7     4    19    1
     8     4    23    1
     9     7    27    1
    10     7    29    1
    11     8    14    1
    12     9    16    1
    13    10    16   ar
    14    10    26   ar
    15    11    19   ar
    16    11    26   ar
    17    12    29   ar
    18    12    30   ar
    19    13    29   ar
    20    13    31   ar
    21    14    17    1
    22    15    16   ar
    23    15    18    1
    24    15    19   ar
    25    17    20    1
    26    18    21   ar
    27    18    22   ar
    28    21    24   ar
    29    22    25   ar
    30    23    27    1
    31    24    28   ar
    32    25    28   ar
    33    30    32   ar
    34    31    32   ar
    35     8    33    1
    36     9    34    1
    37    14    35    1
    38    14    36    1
    39    17    37    1
    40    17    38    1
    41    20    39    1
    42    20    40    1
    43    20    41    1
    44    21    42    1
    45    22    43    1
    46    23    44    1
    47    23    45    1
    48    24    46    1
    49    25    47    1
    50    26    48    1
    51    27    49    1
    52    27    50    1
    53    30    51    1
    54    31    52    1
@<TRIPOS>MOLECULE
16004692
 52 54 0 0 0
SMALL
GASTEIGER

@<TRIPOS>ATOM
      1 BR         -0.3297   -5.0241   -1.1330 Br      1  LIG1       -0.0503
      2 BR         -2.4943   10.2444    2.2075 Br      1  LIG1       -0.0472
      3 S           4.6534   -0.3594    0.0066 S.O2    1  LIG1        0.1104
      4 O          -0.6838    1.7197   -0.0179 O.3     1  LIG1       -0.4724
      5 O           3.9384   -1.6011    0.1758 O.2     1  LIG1       -0.1381
      6 O           6.0515   -0.3477   -0.3595 O.2     1  LIG1       -0.1381
      7 O          -2.2800    4.2984    2.1051 O.3     1  LIG1       -0.4590
      8 N           4.5469    0.5484    1.3901 N.3     1  LIG1       -0.1771
      9 N           3.9124    0.5542   -1.1689 N.pl3   1  LIG1       -0.1889
     10 N           3.2180    2.6240   -0.7714 N.ar    1  LIG1       -0.2186
     11 N           1.0403    3.2371   -0.1302 N.ar    1  LIG1       -0.2008
     12 N          -2.2750    6.2595    3.3011 N.ar    1  LIG1       -0.2022
     13 N          -2.5152    6.3148    0.9243 N.ar    1  LIG1       -0.2022
     14 C           3.4224    0.4627    2.3230 C.3     1  LIG1        0.0185
     15 C           1.4890    0.8944   -0.6247 C.ar    1  LIG1        0.0848
     16 C           2.7915    1.3459   -0.8502 C.ar    1  LIG1        0.1532
     17 C           3.4470   -0.8261    3.1383 C.3     1  LIG1       -0.0416
     18 C           1.0382   -0.5148   -0.7596 C.ar    1  LIG1       -0.0094
     19 C           0.6599    1.9460   -0.2342 C.ar    1  LIG1        0.2276
     20 C           2.2969   -0.8734    4.1327 C.3     1  LIG1       -0.0641
     21 C           0.1253   -1.0929    0.1481 C.ar    1  LIG1       -0.0527
     22 C           1.5114   -1.3480   -1.7915 C.ar    1  LIG1       -0.0527
     23 C          -1.1820    2.3744    1.1604 C.3     1  LIG1        0.1252
     24 C          -0.2970   -2.4235    0.0298 C.ar    1  LIG1       -0.0472
     25 C           1.1193   -2.6900   -1.8963 C.ar    1  LIG1       -0.0472
     26 C           2.3037    3.5187   -0.4231 C.ar    1  LIG1        0.1219
     27 C          -1.6180    3.8231    0.9292 C.3     1  LIG1        0.1267
     28 C           0.2110   -3.2198   -0.9878 C.ar    1  LIG1        0.0179
     29 C          -2.3631    5.6742    2.0975 C.ar    1  LIG1        0.3180
     30 C          -2.3204    7.6096    3.3037 C.ar    1  LIG1        0.0483
     31 C          -2.5580    7.6624    0.9883 C.ar    1  LIG1        0.0483
     32 C          -2.4572    8.3687    2.1641 C.ar    1  LIG1        0.0543
     33 H           5.1260    1.3849    1.4023 H       1  LIG1        0.1493
     34 H           4.6277    1.1518   -1.5841 H       1  LIG1        0.1763
     35 H           2.4686    0.5703    1.8090 H       1  LIG1        0.0442
     36 H           3.4967    1.3199    3.0035 H       1  LIG1        0.0442
     37 H           4.4005   -0.9187    3.6701 H       1  LIG1        0.0275
     38 H           3.3617   -1.7026    2.4907 H       1  LIG1        0.0275
     39 H           2.3770   -0.0644    4.8654 H       1  LIG1        0.0230
     40 H           2.3030   -1.8258    4.6718 H       1  LIG1        0.0230
     41 H           1.3325   -0.7819    3.6213 H       1  LIG1        0.0230
     42 H          -0.2751   -0.5178    0.9792 H       1  LIG1        0.0624
     43 H           2.2237   -0.9753   -2.5246 H       1  LIG1        0.0624
     44 H          -0.4679    2.2977    1.9924 H       1  LIG1        0.0731
     45 H          -2.0575    1.7977    1.4850 H       1  LIG1        0.0731
     46 H          -1.0119   -2.8250    0.7433 H       1  LIG1        0.0629
     47 H           1.5405   -3.3095   -2.6836 H       1  LIG1        0.0629
     48 H           2.6094    4.5571   -0.3665 H       1  LIG1        0.1049
     49 H          -0.7442    4.4503    0.7254 H       1  LIG1        0.0732
     50 H          -2.2884    3.8725    0.0632 H       1  LIG1        0.0732
     51 H          -2.2346    8.0671    4.2850 H       1  LIG1        0.0843
     52 H          -2.6741    8.1616    0.0308 H       1  LIG1        0.0843
@<TRIPOS>BOND
     1     1    28    1
     2     2    32    1
     3     3     5    2
     4     3     6    2
     5     3     8    1
     6     3     9    1
     7     4    19    1
     8     4    23    1
     9     7    27    1
    10     7    29    1
    11     8    14    1
    12     9    16    1
    13    10    16   ar
    14    10    26   ar
    15    11    19   ar
    16    11    26   ar
    17    12    29   ar
    18    12    30   ar
    19    13    29   ar
    20    13    31   ar
    21    14    17    1
    22    15    16   ar
    23    15    18    1
    24    15    19   ar
    25    17    20    1
    26    18    21   ar
    27    18    22   ar
    28    21    24   ar
    29    22    25   ar
    30    23    27    1
    31    24    28   ar
    32    25    28   ar
    33    30    32   ar
    34    31    32   ar
    35     8    33    1
    36     9    34    1
    37    14    35    1
    38    14    36    1
    39    17    37    1
    40    17    38    1
    41    20    39    1
    42    20    40    1
    43    20    41    1
    44    21    42    1
    45    22    43    1
    46    23    44    1
    47    23    45    1
    48    24    46    1
    49    25    47    1
    50    26    48    1
    51    27    49    1
    52    27    50    1
    53    30    51    1
    54    31    52    1
@<TRIPOS>MOLECULE
16004692
 52 54 0 0 0
SMALL
GASTEIGER

@<TRIPOS>ATOM
      1 BR         -0.3174   -4.9615   -1.1860 Br      1  LIG1       -0.0503
      2 BR          1.1069    4.5297    7.6295 Br      1  LIG1       -0.0472
      3 S           4.5474   -0.2776    0.0208 S.O2    1  LIG1        0.1104
      4 O          -0.7772    1.8128   -0.0957 O.3     1  LIG1       -0.4724
      5 O           3.8059   -1.4980    0.1812 O.2     1  LIG1       -0.1381
      6 O           5.9532   -0.2865   -0.3146 O.2     1  LIG1       -0.1381
      7 O          -2.1538    3.8404    2.7081 O.3     1  LIG1       -0.4590
      8 N           4.4230    0.6341    1.3977 N.3     1  LIG1       -0.1771
      9 N           3.8497    0.6582   -1.1671 N.pl3   1  LIG1       -0.1889
     10 N           3.1214    2.7274   -0.8132 N.ar    1  LIG1       -0.2186
     11 N           0.9167    3.3341   -0.2452 N.ar    1  LIG1       -0.2008
     12 N          -1.6177    5.0832    4.5666 N.ar    1  LIG1       -0.2022
     13 N          -0.3986    3.0911    4.0552 N.ar    1  LIG1       -0.2022
     14 C           3.2942    0.5236    2.3189 C.3     1  LIG1        0.0185
     15 C           1.4113    0.9831   -0.6703 C.ar    1  LIG1        0.0848
     16 C           2.7116    1.4433   -0.8763 C.ar    1  LIG1        0.1532
     17 C           3.3935   -0.7267    3.1868 C.3     1  LIG1       -0.0416
     18 C           0.9761   -0.4307   -0.8073 C.ar    1  LIG1       -0.0094
     19 C           0.5638    2.0327   -0.3130 C.ar    1  LIG1        0.2276
     20 C           2.2245   -0.8201    4.1547 C.3     1  LIG1       -0.0641
     21 C           0.0721   -1.0261    0.0968 C.ar    1  LIG1       -0.0527
     22 C           1.4614   -1.2546   -1.8422 C.ar    1  LIG1       -0.0527
     23 C          -1.1547    2.1374    1.2540 C.3     1  LIG1        0.1252
     24 C          -0.3298   -2.3618   -0.0236 C.ar    1  LIG1       -0.0472
     25 C           1.0912   -2.6020   -1.9490 C.ar    1  LIG1       -0.0472
     26 C           2.1853    3.6205   -0.5138 C.ar    1  LIG1        0.1219
     27 C          -1.3991    3.6290    1.5102 C.3     1  LIG1        0.1267
     28 C           0.1918   -3.1481   -1.0417 C.ar    1  LIG1        0.0179
     29 C          -1.3324    4.0243    3.7956 C.ar    1  LIG1        0.3180
     30 C          -0.8751    5.2152    5.6866 C.ar    1  LIG1        0.0483
     31 C           0.3021    3.2671    5.1969 C.ar    1  LIG1        0.0483
     32 C           0.1058    4.3239    6.0559 C.ar    1  LIG1        0.0543
     33 H           5.0498    1.4322    1.4645 H       1  LIG1        0.1493
     34 H           4.5744    1.2607   -1.5529 H       1  LIG1        0.1763
     35 H           2.3460    0.5361    1.7835 H       1  LIG1        0.0442
     36 H           3.2973    1.4146    2.9586 H       1  LIG1        0.0442
     37 H           4.3375   -0.7270    3.7440 H       1  LIG1        0.0275
     38 H           3.3947   -1.6311    2.5710 H       1  LIG1        0.0275
     39 H           2.2338    0.0141    4.8625 H       1  LIG1        0.0230
     40 H           2.2795   -1.7530    4.7249 H       1  LIG1        0.0230
     41 H           1.2689   -0.8081    3.6195 H       1  LIG1        0.0230
     42 H          -0.3348   -0.4648    0.9323 H       1  LIG1        0.0624
     43 H           2.1695   -0.8686   -2.5724 H       1  LIG1        0.0624
     44 H          -0.4272    1.7190    1.9597 H       1  LIG1        0.0731
     45 H          -2.0884    1.5955    1.4479 H       1  LIG1        0.0731
     46 H          -1.0370   -2.7758    0.6902 H       1  LIG1        0.0629
     47 H           1.5238   -3.2142   -2.7364 H       1  LIG1        0.0629
     48 H           2.4794    4.6632   -0.4784 H       1  LIG1        0.1049
     49 H          -0.4706    4.2114    1.5306 H       1  LIG1        0.0732
     50 H          -1.9888    4.0408    0.6833 H       1  LIG1        0.0732
     51 H          -1.1125    6.0851    6.2925 H       1  LIG1        0.0843
     52 H           1.0430    2.5000    5.4028 H       1  LIG1        0.0843
@<TRIPOS>BOND
     1     1    28    1
     2     2    32    1
     3     3     5    2
     4     3     6    2
     5     3     8    1
     6     3     9    1
     7     4    19    1
     8     4    23    1
     9     7    27    1
    10     7    29    1
    11     8    14    1
    12     9    16    1
    13    10    16   ar
    14    10    26   ar
    15    11    19   ar
    16    11    26   ar
    17    12    29   ar
    18    12    30   ar
    19    13    29   ar
    20    13    31   ar
    21    14    17    1
    22    15    16   ar
    23    15    18    1
    24    15    19   ar
    25    17    20    1
    26    18    21   ar
    27    18    22   ar
    28    21    24   ar
    29    22    25   ar
    30    23    27    1
    31    24    28   ar
    32    25    28   ar
    33    30    32   ar
    34    31    32   ar
    35     8    33    1
    36     9    34    1
    37    14    35    1
    38    14    36    1
    39    17    37    1
    40    17    38    1
    41    20    39    1
    42    20    40    1
    43    20    41    1
    44    21    42    1
    45    22    43    1
    46    23    44    1
    47    23    45    1
    48    24    46    1
    49    25    47    1
    50    26    48    1
    51    27    49    1
    52    27    50    1
    53    30    51    1
    54    31    52    1
@<TRIPOS>MOLECULE
16004692
 52 54 0 0 0
SMALL
GASTEIGER

@<TRIPOS>ATOM
      1 BR         -0.3472   -4.9580   -1.2217 Br      1  LIG1       -0.0503
      2 BR          1.1163    4.5484    7.6110 Br      1  LIG1       -0.0472
      3 S           4.4956   -0.3426    0.0261 S.O2    1  LIG1        0.1104
      4 O          -0.7783    1.8082   -0.1010 O.3     1  LIG1       -0.4724
      5 O           3.6966   -1.5255    0.2043 O.2     1  LIG1       -0.1381
      6 O           5.8974   -0.4209   -0.3019 O.2     1  LIG1       -0.1381
      7 O          -2.1610    3.8246    2.7052 O.3     1  LIG1       -0.4590
      8 N           4.4060    0.5897    1.3902 N.3     1  LIG1       -0.1771
      9 N           3.8404    0.6203   -1.1644 N.pl3   1  LIG1       -0.1889
     10 N           3.1270    2.7012   -0.8141 N.ar    1  LIG1       -0.2186
     11 N           0.9266    3.3229   -0.2393 N.ar    1  LIG1       -0.2008
     12 N          -0.3855    3.0989    4.0393 N.ar    1  LIG1       -0.2022
     13 N          -1.6351    5.0675    4.5660 N.ar    1  LIG1       -0.2022
     14 C           3.2920    0.5059    2.3291 C.3     1  LIG1        0.0185
     15 C           1.4043    0.9719   -0.6773 C.ar    1  LIG1        0.0848
     16 C           2.7088    1.4199   -0.8787 C.ar    1  LIG1        0.1532
     17 C           3.4133   -0.7094    3.2428 C.3     1  LIG1       -0.0416
     18 C           0.9576   -0.4356   -0.8233 C.ar    1  LIG1       -0.0094
     19 C           0.5641    2.0245   -0.3153 C.ar    1  LIG1        0.2276
     20 C           2.2279   -0.8002    4.1922 C.3     1  LIG1       -0.0641
     21 C           0.0859   -1.0413    0.1041 C.ar    1  LIG1       -0.0527
     22 C           1.4063   -1.2413   -1.8882 C.ar    1  LIG1       -0.0527
     23 C          -1.1554    2.1280    1.2493 C.3     1  LIG1        0.1252
     24 C          -0.3186   -2.3756   -0.0212 C.ar    1  LIG1       -0.0472
     25 C           1.0304   -2.5863   -2.0030 C.ar    1  LIG1       -0.0472
     26 C           2.1976    3.6002   -0.5082 C.ar    1  LIG1        0.1219
     27 C          -1.4116    3.6175    1.5035 C.3     1  LIG1        0.1267
     28 C           0.1656   -3.1460   -1.0703 C.ar    1  LIG1        0.0179
     29 C          -1.3361    4.0171    3.7885 C.ar    1  LIG1        0.3180
     30 C           0.3193    3.2825    5.1773 C.ar    1  LIG1        0.0483
     31 C          -0.8883    5.2078    5.6824 C.ar    1  LIG1        0.0483
     32 C           0.1098    4.3322    6.0420 C.ar    1  LIG1        0.0543
     33 H           5.1462    1.2738    1.5293 H       1  LIG1        0.1493
     34 H           4.5806    1.2181   -1.5272 H       1  LIG1        0.1763
     35 H           2.3390    0.4808    1.8002 H       1  LIG1        0.0442
     36 H           3.2876    1.4224    2.9303 H       1  LIG1        0.0442
     37 H           4.3456   -0.6610    3.8162 H       1  LIG1        0.0275
     38 H           3.4537   -1.6344    2.6591 H       1  LIG1        0.0275
     39 H           2.2013    0.0594    4.8685 H       1  LIG1        0.0230
     40 H           2.2954   -1.7097    4.7972 H       1  LIG1        0.0230
     41 H           1.2828   -0.8326    3.6393 H       1  LIG1        0.0230
     42 H          -0.2879   -0.4899    0.9617 H       1  LIG1        0.0624
     43 H           2.0902   -0.8421   -2.6346 H       1  LIG1        0.0624
     44 H          -0.4236    1.7155    1.9543 H       1  LIG1        0.0731
     45 H          -2.0843    1.5784    1.4451 H       1  LIG1        0.0731
     46 H          -0.9974   -2.8015    0.7129 H       1  LIG1        0.0629
     47 H           1.4330   -3.1864   -2.8146 H       1  LIG1        0.0629
     48 H           2.5003    4.6407   -0.4676 H       1  LIG1        0.1049
     49 H          -0.4886    4.2092    1.5156 H       1  LIG1        0.0732
     50 H          -2.0107    4.0216    0.6791 H       1  LIG1        0.0732
     51 H           1.0748    2.5277    5.3753 H       1  LIG1        0.0843
     52 H          -1.1370    6.0710    6.2932 H       1  LIG1        0.0843
@<TRIPOS>BOND
     1     1    28    1
     2     2    32    1
     3     3     5    2
     4     3     6    2
     5     3     8    1
     6     3     9    1
     7     4    19    1
     8     4    23    1
     9     7    27    1
    10     7    29    1
    11     8    14    1
    12     9    16    1
    13    10    16   ar
    14    10    26   ar
    15    11    19   ar
    16    11    26   ar
    17    12    29   ar
    18    12    30   ar
    19    13    29   ar
    20    13    31   ar
    21    14    17    1
    22    15    16   ar
    23    15    18    1
    24    15    19   ar
    25    17    20    1
    26    18    21   ar
    27    18    22   ar
    28    21    24   ar
    29    22    25   ar
    30    23    27    1
    31    24    28   ar
    32    25    28   ar
    33    30    32   ar
    34    31    32   ar
    35     8    33    1
    36     9    34    1
    37    14    35    1
    38    14    36    1
    39    17    37    1
    40    17    38    1
    41    20    39    1
    42    20    40    1
    43    20    41    1
    44    21    42    1
    45    22    43    1
    46    23    44    1
    47    23    45    1
    48    24    46    1
    49    25    47    1
    50    26    48    1
    51    27    49    1
    52    27    50    1
    53    30    51    1
    54    31    52    1
@<TRIPOS>MOLECULE
16004692
 52 54 0 0 0
SMALL
GASTEIGER

@<TRIPOS>ATOM
      1 BR         -0.6556   -5.0147   -1.0700 Br      1  LIG1       -0.0503
      2 BR          1.0516    4.5623    7.8400 Br      1  LIG1       -0.0472
      3 S           3.8210    0.9897   -3.0783 S.O2    1  LIG1        0.1104
      4 O          -0.6057    1.6326    0.5206 O.3     1  LIG1       -0.4724
      5 O           4.2071    2.3795   -3.0844 O.2     1  LIG1       -0.1381
      6 O           4.6215   -0.0076   -3.7412 O.2     1  LIG1       -0.1381
      7 O          -2.1885    4.0295    2.8773 O.3     1  LIG1       -0.4590
      8 N           2.2441    0.9109   -3.6693 N.3     1  LIG1       -0.1771
      9 N           3.6354    0.4638   -1.4896 N.pl3   1  LIG1       -0.1889
     10 N           3.3094    2.3914   -0.3179 N.ar    1  LIG1       -0.2186
     11 N           1.2241    3.0315    0.5766 N.ar    1  LIG1       -0.2008
     12 N          -0.0583    4.1328    3.8813 N.ar    1  LIG1       -0.2022
     13 N          -2.0711    4.3917    5.1327 N.ar    1  LIG1       -0.2022
     14 C           2.0626    1.4475   -5.0463 C.3     1  LIG1        0.0185
     15 C           1.4529    0.8036   -0.3763 C.ar    1  LIG1        0.0848
     16 C           2.7505    1.2253   -0.6762 C.ar    1  LIG1        0.1532
     17 C           2.6131    0.5242   -6.1213 C.3     1  LIG1       -0.0416
     18 C           0.9403   -0.5801   -0.6164 C.ar    1  LIG1       -0.0094
     19 C           0.7362    1.8121    0.2660 C.ar    1  LIG1        0.2276
     20 C           2.3255    1.0814   -7.5079 C.3     1  LIG1       -0.0641
     21 C          -0.4146   -0.8610   -0.8796 C.ar    1  LIG1       -0.0527
     22 C           1.7946   -1.7011   -0.5209 C.ar    1  LIG1       -0.0527
     23 C          -1.0293    2.1616    1.7805 C.3     1  LIG1        0.1252
     24 C          -0.8946   -2.1744   -1.0023 C.ar    1  LIG1       -0.0472
     25 C           1.3327   -3.0139   -0.6798 C.ar    1  LIG1       -0.0472
     26 C           2.5033    3.2551    0.2900 C.ar    1  LIG1        0.1219
     27 C          -1.4792    3.6260    1.7030 C.3     1  LIG1        0.1267
     28 C          -0.0158   -3.2454   -0.9061 C.ar    1  LIG1        0.0179
     29 C          -1.3963    4.2069    3.9888 C.ar    1  LIG1        0.3180
     30 C           0.6384    4.2450    5.0320 C.ar    1  LIG1        0.0483
     31 C          -1.3244    4.5028    6.2524 C.ar    1  LIG1        0.0483
     32 C           0.0486    4.4300    6.2598 C.ar    1  LIG1        0.0543
     33 H           1.6441    1.4570   -3.0513 H       1  LIG1        0.1493
     34 H           4.5701    0.5311   -1.0872 H       1  LIG1        0.1763
     35 H           2.4965    2.4514   -5.1159 H       1  LIG1        0.0442
     36 H           0.9824    1.5747   -5.1935 H       1  LIG1        0.0442
     37 H           2.1714   -0.4737   -6.0244 H       1  LIG1        0.0275
     38 H           3.6959    0.4096   -6.0192 H       1  LIG1        0.0275
     39 H           1.2489    1.1826   -7.6764 H       1  LIG1        0.0230
     40 H           2.7314    0.4168   -8.2766 H       1  LIG1        0.0230
     41 H           2.7862    2.0670   -7.6348 H       1  LIG1        0.0230
     42 H          -1.1456   -0.0618   -0.9842 H       1  LIG1        0.0624
     43 H           2.8546   -1.5811   -0.3049 H       1  LIG1        0.0624
     44 H          -0.2714    1.9846    2.5530 H       1  LIG1        0.0731
     45 H          -1.8916    1.5584    2.0896 H       1  LIG1        0.0731
     46 H          -1.9548   -2.3429   -1.1683 H       1  LIG1        0.0629
     47 H           2.0362   -3.8399   -0.6121 H       1  LIG1        0.0629
     48 H           2.9145    4.2228    0.5561 H       1  LIG1        0.1049
     49 H          -0.6681    4.3271    1.4765 H       1  LIG1        0.0732
     50 H          -2.1776    3.7298    0.8634 H       1  LIG1        0.0732
     51 H           1.7165    4.1705    4.9225 H       1  LIG1        0.0843
     52 H          -1.8929    4.6498    7.1662 H       1  LIG1        0.0843
@<TRIPOS>BOND
     1     1    28    1
     2     2    32    1
     3     3     5    2
     4     3     6    2
     5     3     8    1
     6     3     9    1
     7     4    19    1
     8     4    23    1
     9     7    27    1
    10     7    29    1
    11     8    14    1
    12     9    16    1
    13    10    16   ar
    14    10    26   ar
    15    11    19   ar
    16    11    26   ar
    17    12    29   ar
    18    12    30   ar
    19    13    29   ar
    20    13    31   ar
    21    14    17    1
    22    15    16   ar
    23    15    18    1
    24    15    19   ar
    25    17    20    1
    26    18    21   ar
    27    18    22   ar
    28    21    24   ar
    29    22    25   ar
    30    23    27    1
    31    24    28   ar
    32    25    28   ar
    33    30    32   ar
    34    31    32   ar
    35     8    33    1
    36     9    34    1
    37    14    35    1
    38    14    36    1
    39    17    37    1
    40    17    38    1
    41    20    39    1
    42    20    40    1
    43    20    41    1
    44    21    42    1
    45    22    43    1
    46    23    44    1
    47    23    45    1
    48    24    46    1
    49    25    47    1
    50    26    48    1
    51    27    49    1
    52    27    50    1
    53    30    51    1
    54    31    52    1
@<TRIPOS>MOLECULE
16004692
 52 54 0 0 0
SMALL
GASTEIGER

@<TRIPOS>ATOM
      1 BR         -0.3746   -5.1672   -1.1859 Br      1  LIG1       -0.0503
      2 BR         -8.5489    2.2386    3.1594 Br      1  LIG1       -0.0472
      3 S           3.7366    1.0580   -3.0314 S.O2    1  LIG1        0.1104
      4 O          -0.6205    1.1983    0.9043 O.3     1  LIG1       -0.4724
      5 O           4.1093    2.4488   -3.0482 O.2     1  LIG1       -0.1381
      6 O           4.5606    0.0605   -3.6731 O.2     1  LIG1       -0.1381
      7 O          -2.6497    1.9570    3.8397 O.3     1  LIG1       -0.4590
      8 N           2.1720    0.9514   -3.6452 N.3     1  LIG1       -0.1771
      9 N           3.5380    0.5480   -1.4456 N.pl3   1  LIG1       -0.1889
     10 N           3.0315    2.5008   -0.3587 N.ar    1  LIG1       -0.2186
     11 N           0.9468    2.9127    0.6799 N.ar    1  LIG1       -0.2008
     12 N          -4.4967    1.9146    2.3893 N.ar    1  LIG1       -0.2022
     13 N          -4.7346    2.1899    4.7508 N.ar    1  LIG1       -0.2022
     14 C           2.0045    1.4693   -5.0308 C.3     1  LIG1        0.0185
     15 C           1.3742    0.7213   -0.2843 C.ar    1  LIG1        0.0848
     16 C           2.5981    1.2685   -0.6604 C.ar    1  LIG1        0.1532
     17 C           2.5833    0.5444   -6.0895 C.3     1  LIG1       -0.0416
     18 C           0.9637   -0.6837   -0.5447 C.ar    1  LIG1       -0.0094
     19 C           0.5948    1.6364    0.4223 C.ar    1  LIG1        0.2276
     20 C           2.3220    1.0940   -7.4843 C.3     1  LIG1       -0.0641
     21 C          -0.3492   -1.0137   -0.9369 C.ar    1  LIG1       -0.0527
     22 C           1.8621   -1.7557   -0.3738 C.ar    1  LIG1       -0.0527
     23 C          -1.2963    2.0630    1.8189 C.3     1  LIG1        0.1252
     24 C          -0.7518   -2.3428   -1.1200 C.ar    1  LIG1       -0.0472
     25 C           1.4740   -3.0850   -0.5810 C.ar    1  LIG1       -0.0472
     26 C           2.1651    3.2799    0.2849 C.ar    1  LIG1        0.1219
     27 C          -1.9682    1.1769    2.8629 C.3     1  LIG1        0.1267
     28 C           0.1642   -3.3728   -0.9432 C.ar    1  LIG1        0.0179
     29 C          -4.0080    2.0055    3.6390 C.ar    1  LIG1        0.3180
     30 C          -5.8413    1.9874    2.2795 C.ar    1  LIG1        0.0483
     31 C          -6.0714    2.2540    4.5809 C.ar    1  LIG1        0.0483
     32 C          -6.6846    2.1541    3.3541 C.ar    1  LIG1        0.0543
     33 H           1.5630    1.5003   -3.0407 H       1  LIG1        0.1493
     34 H           4.4595    0.6502   -1.0210 H       1  LIG1        0.1763
     35 H           2.4260    2.4786   -5.1035 H       1  LIG1        0.0442
     36 H           0.9253    1.5805   -5.1954 H       1  LIG1        0.0442
     37 H           2.1453   -0.4558   -5.9972 H       1  LIG1        0.0275
     38 H           3.6644    0.4359   -5.9649 H       1  LIG1        0.0275
     39 H           1.2485    1.1896   -7.6755 H       1  LIG1        0.0230
     40 H           2.7469    0.4284   -8.2415 H       1  LIG1        0.0230
     41 H           2.7806    2.0813   -7.6057 H       1  LIG1        0.0230
     42 H          -1.0935   -0.2347   -1.0936 H       1  LIG1        0.0624
     43 H           2.8905   -1.5754   -0.0667 H       1  LIG1        0.0624
     44 H          -2.0363    2.6532    1.2670 H       1  LIG1        0.0731
     45 H          -0.6366    2.7630    2.3451 H       1  LIG1        0.0731
     46 H          -1.7808   -2.5576   -1.3961 H       1  LIG1        0.0629
     47 H           2.2022   -3.8812   -0.4491 H       1  LIG1        0.0629
     48 H           2.4761    4.2960    0.5026 H       1  LIG1        0.1049
     49 H          -2.5914    0.3993    2.4000 H       1  LIG1        0.0732
     50 H          -1.1847    0.6205    3.3930 H       1  LIG1        0.0732
     51 H          -6.2227    1.9023    1.2661 H       1  LIG1        0.0843
     52 H          -6.6406    2.3906    5.4956 H       1  LIG1        0.0843
@<TRIPOS>BOND
     1     1    28    1
     2     2    32    1
     3     3     5    2
     4     3     6    2
     5     3     8    1
     6     3     9    1
     7     4    19    1
     8     4    23    1
     9     7    27    1
    10     7    29    1
    11     8    14    1
    12     9    16    1
    13    10    16   ar
    14    10    26   ar
    15    11    19   ar
    16    11    26   ar
    17    12    29   ar
    18    12    30   ar
    19    13    29   ar
    20    13    31   ar
    21    14    17    1
    22    15    16   ar
    23    15    18    1
    24    15    19   ar
    25    17    20    1
    26    18    21   ar
    27    18    22   ar
    28    21    24   ar
    29    22    25   ar
    30    23    27    1
    31    24    28   ar
    32    25    28   ar
    33    30    32   ar
    34    31    32   ar
    35     8    33    1
    36     9    34    1
    37    14    35    1
    38    14    36    1
    39    17    37    1
    40    17    38    1
    41    20    39    1
    42    20    40    1
    43    20    41    1
    44    21    42    1
    45    22    43    1
    46    23    44    1
    47    23    45    1
    48    24    46    1
    49    25    47    1
    50    26    48    1
    51    27    49    1
    52    27    50    1
    53    30    51    1
    54    31    52    1
@<TRIPOS>MOLECULE
16004692
 52 54 0 0 0
SMALL
GASTEIGER

@<TRIPOS>ATOM
      1 BR         -0.3717   -5.1607   -1.1928 Br      1  LIG1       -0.0503
      2 BR         -8.5453    2.2373    3.1526 Br      1  LIG1       -0.0472
      3 S           3.7487    1.0679   -3.0344 S.O2    1  LIG1        0.1104
      4 O          -0.6143    1.2048    0.8984 O.3     1  LIG1       -0.4724
      5 O           4.1091    2.4653   -3.0482 O.2     1  LIG1       -0.1381
      6 O           4.5822    0.0799   -3.6756 O.2     1  LIG1       -0.1381
      7 O          -2.6453    1.9599    3.8326 O.3     1  LIG1       -0.4590
      8 N           2.1845    0.9509   -3.6482 N.3     1  LIG1       -0.1771
      9 N           3.5492    0.5569   -1.4484 N.pl3   1  LIG1       -0.1889
     10 N           3.0408    2.5064   -0.3560 N.ar    1  LIG1       -0.2186
     11 N           0.9547    2.9179    0.6801 N.ar    1  LIG1       -0.2008
     12 N          -4.4928    1.9147    2.3824 N.ar    1  LIG1       -0.2022
     13 N          -4.7300    2.1918    4.7435 N.ar    1  LIG1       -0.2022
     14 C           2.0122    1.4678   -5.0333 C.3     1  LIG1        0.0185
     15 C           1.3817    0.7277   -0.2892 C.ar    1  LIG1        0.0848
     16 C           2.6068    1.2751   -0.6625 C.ar    1  LIG1        0.1532
     17 C           2.5908    0.5422   -6.0915 C.3     1  LIG1       -0.0416
     18 C           0.9705   -0.6774   -0.5520 C.ar    1  LIG1       -0.0094
     19 C           0.6020    1.6423    0.4185 C.ar    1  LIG1        0.2276
     20 C           2.3288    1.0904   -7.4866 C.3     1  LIG1       -0.0641
     21 C           1.8704   -1.7498   -0.3917 C.ar    1  LIG1       -0.0527
     22 C          -0.3456   -1.0078   -0.9342 C.ar    1  LIG1       -0.0527
     23 C          -1.2909    2.0683    1.8134 C.3     1  LIG1        0.1252
     24 C           1.4811   -3.0790   -0.5994 C.ar    1  LIG1       -0.0472
     25 C          -0.7495   -2.3368   -1.1165 C.ar    1  LIG1       -0.0472
     26 C           2.1739    3.2849    0.2879 C.ar    1  LIG1        0.1219
     27 C          -1.9632    1.1807    2.8558 C.3     1  LIG1        0.1267
     28 C           0.1681   -3.3667   -0.9503 C.ar    1  LIG1        0.0179
     29 C          -4.0035    2.0072    3.6318 C.ar    1  LIG1        0.3180
     30 C          -5.8375    1.9865    2.2727 C.ar    1  LIG1        0.0483
     31 C          -6.0670    2.2548    4.5739 C.ar    1  LIG1        0.0483
     32 C          -6.6808    2.1535    3.3473 C.ar    1  LIG1        0.0543
     33 H           1.5700    1.4936   -3.0433 H       1  LIG1        0.1493
     34 H           4.4697    0.6620   -1.0224 H       1  LIG1        0.1763
     35 H           2.4313    2.4779   -5.1086 H       1  LIG1        0.0442
     36 H           0.9325    1.5765   -5.1963 H       1  LIG1        0.0442
     37 H           2.1525   -0.4578   -5.9980 H       1  LIG1        0.0275
     38 H           3.6718    0.4335   -5.9668 H       1  LIG1        0.0275
     39 H           1.2552    1.1864   -7.6772 H       1  LIG1        0.0230
     40 H           2.7529    0.4238   -8.2435 H       1  LIG1        0.0230
     41 H           2.7878    2.0773   -7.6091 H       1  LIG1        0.0230
     42 H           2.9012   -1.5706   -0.0920 H       1  LIG1        0.0624
     43 H          -1.0921   -0.2295   -1.0832 H       1  LIG1        0.0624
     44 H          -2.0308    2.6591    1.2619 H       1  LIG1        0.0731
     45 H          -0.6318    2.7679    2.3411 H       1  LIG1        0.0731
     46 H           2.2108   -3.8750   -0.4759 H       1  LIG1        0.0629
     47 H          -1.7809   -2.5513   -1.3838 H       1  LIG1        0.0629
     48 H           2.4854    4.3002    0.5090 H       1  LIG1        0.1049
     49 H          -2.5858    0.4034    2.3915 H       1  LIG1        0.0732
     50 H          -1.1801    0.6240    3.3860 H       1  LIG1        0.0732
     51 H          -6.2191    1.9003    1.2593 H       1  LIG1        0.0843
     52 H          -6.6365    2.3923    5.4885 H       1  LIG1        0.0843
@<TRIPOS>BOND
     1     1    28    1
     2     2    32    1
     3     3     5    2
     4     3     6    2
     5     3     8    1
     6     3     9    1
     7     4    19    1
     8     4    23    1
     9     7    27    1
    10     7    29    1
    11     8    14    1
    12     9    16    1
    13    10    16   ar
    14    10    26   ar
    15    11    19   ar
    16    11    26   ar
    17    12    29   ar
    18    12    30   ar
    19    13    29   ar
    20    13    31   ar
    21    14    17    1
    22    15    16   ar
    23    15    18    1
    24    15    19   ar
    25    17    20    1
    26    18    21   ar
    27    18    22   ar
    28    21    24   ar
    29    22    25   ar
    30    23    27    1
    31    24    28   ar
    32    25    28   ar
    33    30    32   ar
    34    31    32   ar
    35     8    33    1
    36     9    34    1
    37    14    35    1
    38    14    36    1
    39    17    37    1
    40    17    38    1
    41    20    39    1
    42    20    40    1
    43    20    41    1
    44    21    42    1
    45    22    43    1
    46    23    44    1
    47    23    45    1
    48    24    46    1
    49    25    47    1
    50    26    48    1
    51    27    49    1
    52    27    50    1
    53    30    51    1
    54    31    52    1
@<TRIPOS>MOLECULE
16004692
 52 54 0 0 0
SMALL
GASTEIGER

@<TRIPOS>ATOM
      1 BR         -0.3919   -5.2451   -0.9256 Br      1  LIG1       -0.0503
      2 BR         -8.5859    2.2102    3.2444 Br      1  LIG1       -0.0472
      3 S           3.9039    1.0524   -2.9208 S.O2    1  LIG1        0.1104
      4 O          -0.8154    1.2824    0.5657 O.3     1  LIG1       -0.4724
      5 O           4.5129    2.3518   -2.7986 O.2     1  LIG1       -0.1381
      6 O           4.5784   -0.0236   -3.6105 O.2     1  LIG1       -0.1381
      7 O          -2.6588    1.9574    3.6561 O.3     1  LIG1       -0.4590
      8 N           2.3836    1.2762   -3.6151 N.3     1  LIG1       -0.1771
      9 N           3.5011    0.4589   -1.3979 N.pl3   1  LIG1       -0.1889
     10 N           2.9809    2.4449   -0.3636 N.ar    1  LIG1       -0.2186
     11 N           0.8509    2.9175    0.5459 N.ar    1  LIG1       -0.2008
     12 N          -4.5743    1.8548    2.2994 N.ar    1  LIG1       -0.2022
     13 N          -4.7007    2.2052    4.6583 N.ar    1  LIG1       -0.2022
     14 C           2.3743    1.7604   -5.0202 C.3     1  LIG1        0.0185
     15 C           1.3030    0.6913   -0.3186 C.ar    1  LIG1        0.0848
     16 C           2.5446    1.2141   -0.6675 C.ar    1  LIG1        0.1532
     17 C           2.7047    0.6657   -6.0229 C.3     1  LIG1       -0.0416
     18 C           0.8998   -0.7260   -0.4916 C.ar    1  LIG1       -0.0094
     19 C           0.4865    1.6458    0.2858 C.ar    1  LIG1        0.2276
     20 C           2.4377    1.1354   -7.4454 C.3     1  LIG1       -0.0641
     21 C           1.0541   -1.4194   -1.7038 C.ar    1  LIG1       -0.0527
     22 C           0.3484   -1.4462    0.5895 C.ar    1  LIG1       -0.0527
     23 C          -1.5198    2.1045    1.5008 C.3     1  LIG1        0.1252
     24 C           0.6802   -2.7640   -1.8330 C.ar    1  LIG1       -0.0472
     25 C          -0.0459   -2.7823    0.4630 C.ar    1  LIG1       -0.0472
     26 C           2.1019    3.2476    0.2334 C.ar    1  LIG1        0.1219
     27 C          -2.0073    1.2086    2.6359 C.3     1  LIG1        0.1267
     28 C           0.1262   -3.4369   -0.7504 C.ar    1  LIG1        0.0179
     29 C          -4.0277    1.9892    3.5196 C.ar    1  LIG1        0.3180
     30 C          -5.9225    1.9256    2.2492 C.ar    1  LIG1        0.0483
     31 C          -6.0444    2.2626    4.5487 C.ar    1  LIG1        0.0483
     32 C          -6.7150    2.1265    3.3553 C.ar    1  LIG1        0.0543
     33 H           1.9039    1.9771   -3.0476 H       1  LIG1        0.1493
     34 H           4.3743    0.4163   -0.8750 H       1  LIG1        0.1763
     35 H           3.0410    2.6235   -5.1276 H       1  LIG1        0.0442
     36 H           1.3598    2.1326   -5.2104 H       1  LIG1        0.0442
     37 H           2.1129   -0.2337   -5.8170 H       1  LIG1        0.0275
     38 H           3.7593    0.3828   -5.9462 H       1  LIG1        0.0275
     39 H           1.3753    1.3563   -7.5920 H       1  LIG1        0.0230
     40 H           2.7258    0.3611   -8.1629 H       1  LIG1        0.0230
     41 H           3.0101    2.0405   -7.6734 H       1  LIG1        0.0230
     42 H           1.4717   -0.9299   -2.5799 H       1  LIG1        0.0624
     43 H           0.2171   -0.9676    1.5586 H       1  LIG1        0.0624
     44 H          -2.3634    2.5630    0.9743 H       1  LIG1        0.0731
     45 H          -0.9375    2.9274    1.9305 H       1  LIG1        0.0731
     46 H           0.8288   -3.2687   -2.7840 H       1  LIG1        0.0629
     47 H          -0.4795   -3.2972    1.3163 H       1  LIG1        0.0629
     48 H           2.4289    4.2542    0.4697 H       1  LIG1        0.1049
     49 H          -2.6054    0.3645    2.2653 H       1  LIG1        0.0732
     50 H          -1.1318    0.7409    3.1036 H       1  LIG1        0.0732
     51 H          -6.3496    1.8111    1.2569 H       1  LIG1        0.0843
     52 H          -6.5712    2.4267    5.4843 H       1  LIG1        0.0843
@<TRIPOS>BOND
     1     1    28    1
     2     2    32    1
     3     3     5    2
     4     3     6    2
     5     3     8    1
     6     3     9    1
     7     4    19    1
     8     4    23    1
     9     7    27    1
    10     7    29    1
    11     8    14    1
    12     9    16    1
    13    10    16   ar
    14    10    26   ar
    15    11    19   ar
    16    11    26   ar
    17    12    29   ar
    18    12    30   ar
    19    13    29   ar
    20    13    31   ar
    21    14    17    1
    22    15    16   ar
    23    15    18    1
    24    15    19   ar
    25    17    20    1
    26    18    21   ar
    27    18    22   ar
    28    21    24   ar
    29    22    25   ar
    30    23    27    1
    31    24    28   ar
    32    25    28   ar
    33    30    32   ar
    34    31    32   ar
    35     8    33    1
    36     9    34    1
    37    14    35    1
    38    14    36    1
    39    17    37    1
    40    17    38    1
    41    20    39    1
    42    20    40    1
    43    20    41    1
    44    21    42    1
    45    22    43    1
    46    23    44    1
    47    23    45    1
    48    24    46    1
    49    25    47    1
    50    26    48    1
    51    27    49    1
    52    27    50    1
    53    30    51    1
    54    31    52    1
@<TRIPOS>MOLECULE
16004692
 52 54 0 0 0
SMALL
GASTEIGER

@<TRIPOS>ATOM
      1 BR         -0.4613   -5.4200   -1.0117 Br      1  LIG1       -0.0503
      2 BR         -1.0943    7.8072    4.7974 Br      1  LIG1       -0.0472
      3 S           3.9092    0.8519   -2.7437 S.O2    1  LIG1        0.1104
      4 O          -0.9877    1.1229    0.2750 O.3     1  LIG1       -0.4724
      5 O           4.6697    2.0629   -2.5693 O.2     1  LIG1       -0.1381
      6 O           4.4326   -0.2556   -3.5079 O.2     1  LIG1       -0.1381
      7 O          -2.6557    2.2507    3.3613 O.3     1  LIG1       -0.4590
      8 N           2.4160    1.2810   -3.3842 N.3     1  LIG1       -0.1771
      9 N           3.4839    0.2517   -1.2283 N.pl3   1  LIG1       -0.1889
     10 N           2.9174    2.2232   -0.1784 N.ar    1  LIG1       -0.2186
     11 N           0.7072    2.7198    0.5157 N.ar    1  LIG1       -0.2008
     12 N          -3.2340    4.3416    4.0840 N.ar    1  LIG1       -0.2022
     13 N          -0.9494    3.8530    3.5995 N.ar    1  LIG1       -0.2022
     14 C           2.3912    1.6350   -4.8226 C.3     1  LIG1        0.0185
     15 C           1.2149    0.5005   -0.3251 C.ar    1  LIG1        0.0848
     16 C           2.4960    0.9988   -0.5308 C.ar    1  LIG1        0.1532
     17 C           2.7467    3.1079   -5.0192 C.3     1  LIG1       -0.0416
     18 C           0.8144   -0.9084   -0.5262 C.ar    1  LIG1       -0.0094
     19 C           0.3496    1.4637    0.1836 C.ar    1  LIG1        0.2276
     20 C           2.4240    3.5846   -6.4257 C.3     1  LIG1       -0.0641
     21 C           1.0117   -1.5934   -1.7354 C.ar    1  LIG1       -0.0527
     22 C           0.2214   -1.6256    0.5347 C.ar    1  LIG1       -0.0527
     23 C          -1.7923    1.9782    1.0881 C.3     1  LIG1        0.1252
     24 C           0.6393   -2.9358   -1.8792 C.ar    1  LIG1       -0.0472
     25 C          -0.1663   -2.9609    0.3927 C.ar    1  LIG1       -0.0472
     26 C           1.9927    3.0286    0.3450 C.ar    1  LIG1        0.1219
     27 C          -1.7260    1.5375    2.5501 C.3     1  LIG1        0.1267
     28 C           0.0489   -3.6115   -0.8159 C.ar    1  LIG1        0.0179
     29 C          -2.2488    3.5230    3.6878 C.ar    1  LIG1        0.3180
     30 C          -2.8661    5.5997    4.4055 C.ar    1  LIG1        0.0483
     31 C          -0.6375    5.1223    3.9365 C.ar    1  LIG1        0.0483
     32 C          -1.5673    6.0483    4.3479 C.ar    1  LIG1        0.0543
     33 H           2.0314    2.0473   -2.8303 H       1  LIG1        0.1493
     34 H           4.3472    0.2340   -0.6874 H       1  LIG1        0.1763
     35 H           1.3680    1.4531   -5.1721 H       1  LIG1        0.0442
     36 H           3.0449    0.9795   -5.4061 H       1  LIG1        0.0442
     37 H           3.8126    3.2665   -4.8217 H       1  LIG1        0.0275
     38 H           2.1970    3.7309   -4.3028 H       1  LIG1        0.0275
     39 H           2.9721    3.0049   -7.1744 H       1  LIG1        0.0230
     40 H           2.6993    4.6380   -6.5395 H       1  LIG1        0.0230
     41 H           1.3528    3.4929   -6.6328 H       1  LIG1        0.0230
     42 H           1.4617   -1.0965   -2.5913 H       1  LIG1        0.0624
     43 H           0.0530   -1.1436    1.4967 H       1  LIG1        0.0624
     44 H          -2.8258    1.8642    0.7381 H       1  LIG1        0.0731
     45 H          -1.5722    3.0431    0.9489 H       1  LIG1        0.0731
     46 H           0.8183   -3.4393   -2.8258 H       1  LIG1        0.0629
     47 H          -0.6289   -3.4771    1.2296 H       1  LIG1        0.0629
     48 H           2.3081    4.0255    0.6339 H       1  LIG1        0.1049
     49 H          -2.0143    0.4798    2.6004 H       1  LIG1        0.0732
     50 H          -0.7053    1.5601    2.9526 H       1  LIG1        0.0732
     51 H          -3.6805    6.2469    4.7175 H       1  LIG1        0.0843
     52 H           0.4171    5.3692    3.8592 H       1  LIG1        0.0843
@<TRIPOS>BOND
     1     1    28    1
     2     2    32    1
     3     3     5    2
     4     3     6    2
     5     3     8    1
     6     3     9    1
     7     4    19    1
     8     4    23    1
     9     7    27    1
    10     7    29    1
    11     8    14    1
    12     9    16    1
    13    10    16   ar
    14    10    26   ar
    15    11    19   ar
    16    11    26   ar
    17    12    29   ar
    18    12    30   ar
    19    13    29   ar
    20    13    31   ar
    21    14    17    1
    22    15    16   ar
    23    15    18    1
    24    15    19   ar
    25    17    20    1
    26    18    21   ar
    27    18    22   ar
    28    21    24   ar
    29    22    25   ar
    30    23    27    1
    31    24    28   ar
    32    25    28   ar
    33    30    32   ar
    34    31    32   ar
    35     8    33    1
    36     9    34    1
    37    14    35    1
    38    14    36    1
    39    17    37    1
    40    17    38    1
    41    20    39    1
    42    20    40    1
    43    20    41    1
    44    21    42    1
    45    22    43    1
    46    23    44    1
    47    23    45    1
    48    24    46    1
    49    25    47    1
    50    26    48    1
    51    27    49    1
    52    27    50    1
    53    30    51    1
    54    31    52    1
@<TRIPOS>MOLECULE
16004692
 52 54 0 0 0
SMALL
GASTEIGER

@<TRIPOS>ATOM
      1 BR         -0.2740   -5.3797   -1.2623 Br      1  LIG1       -0.0503
      2 BR         -1.1645    7.8954    4.8522 Br      1  LIG1       -0.0472
      3 S           3.6697    0.9298   -3.0120 S.O2    1  LIG1        0.1104
      4 O          -0.8315    1.1114    0.4893 O.3     1  LIG1       -0.4724
      5 O           4.3020    2.2283   -3.0338 O.2     1  LIG1       -0.1381
      6 O           4.2088   -0.1728   -3.7673 O.2     1  LIG1       -0.1381
      7 O          -2.5291    2.2597    3.5374 O.3     1  LIG1       -0.4590
      8 N           2.0688    1.1728   -3.4627 N.3     1  LIG1       -0.1771
      9 N           3.5391    0.4308   -1.4159 N.pl3   1  LIG1       -0.1889
     10 N           2.9946    2.3317   -0.2687 N.ar    1  LIG1       -0.2186
     11 N           0.8325    2.7416    0.5999 N.ar    1  LIG1       -0.2008
     12 N          -3.1870    4.3525    4.1781 N.ar    1  LIG1       -0.2022
     13 N          -0.8759    3.9130    3.7794 N.ar    1  LIG1       -0.2022
     14 C           1.8772    1.3784   -4.9176 C.3     1  LIG1        0.0185
     15 C           1.3129    0.5654   -0.3732 C.ar    1  LIG1        0.0848
     16 C           2.5731    1.1082   -0.6251 C.ar    1  LIG1        0.1532
     17 C           0.4028    1.6890   -5.1696 C.3     1  LIG1       -0.0416
     18 C           0.9376   -0.8492   -0.6599 C.ar    1  LIG1       -0.0094
     19 C           0.4727    1.4893    0.2472 C.ar    1  LIG1        0.2276
     20 C           0.1706    2.1887   -6.5853 C.3     1  LIG1       -0.0641
     21 C          -0.3555   -1.2221   -1.0766 C.ar    1  LIG1       -0.0527
     22 C           1.8591   -1.8999   -0.4658 C.ar    1  LIG1       -0.0527
     23 C          -1.6274    1.9932    1.2799 C.3     1  LIG1        0.1252
     24 C          -0.7220   -2.5647   -1.2451 C.ar    1  LIG1       -0.0472
     25 C           1.5118   -3.2419   -0.6676 C.ar    1  LIG1       -0.0472
     26 C           2.0908    3.0947    0.3412 C.ar    1  LIG1        0.1219
     27 C          -1.5719    1.5630    2.7439 C.3     1  LIG1        0.1267
     28 C           0.2156   -3.5687   -1.0411 C.ar    1  LIG1        0.0179
     29 C          -2.1676    3.5504    3.8388 C.ar    1  LIG1        0.3180
     30 C          -2.8628    5.6296    4.4717 C.ar    1  LIG1        0.0483
     31 C          -0.6085    5.2000    4.0870 C.ar    1  LIG1        0.0483
     32 C          -1.5752    6.1120    4.4415 C.ar    1  LIG1        0.0543
     33 H           1.7481    2.0057   -2.9658 H       1  LIG1        0.1493
     34 H           4.4624    0.5776   -1.0100 H       1  LIG1        0.1763
     35 H           2.1699    0.4790   -5.4683 H       1  LIG1        0.0442
     36 H           2.4944    2.2217   -5.2473 H       1  LIG1        0.0442
     37 H           0.0479    2.4509   -4.4646 H       1  LIG1        0.0275
     38 H          -0.1988    0.7902   -4.9895 H       1  LIG1        0.0275
     39 H           0.7091    3.1269   -6.7591 H       1  LIG1        0.0230
     40 H          -0.8946    2.3771   -6.7499 H       1  LIG1        0.0230
     41 H           0.5087    1.4556   -7.3239 H       1  LIG1        0.0230
     42 H          -1.1187   -0.4701   -1.2678 H       1  LIG1        0.0624
     43 H           2.8775   -1.6951   -0.1403 H       1  LIG1        0.0624
     44 H          -2.6606    1.8904    0.9246 H       1  LIG1        0.0731
     45 H          -1.3947    3.0547    1.1357 H       1  LIG1        0.0731
     46 H          -1.7417   -2.8084   -1.5310 H       1  LIG1        0.0629
     47 H           2.2608   -4.0159   -0.5183 H       1  LIG1        0.0629
     48 H           2.3981    4.0921    0.6351 H       1  LIG1        0.1049
     49 H          -1.8371    0.4990    2.7970 H       1  LIG1        0.0732
     50 H          -0.5563    1.6135    3.1571 H       1  LIG1        0.0732
     51 H          -3.7047    6.2630    4.7377 H       1  LIG1        0.0843
     52 H           0.4412    5.4729    4.0349 H       1  LIG1        0.0843
@<TRIPOS>BOND
     1     1    28    1
     2     2    32    1
     3     3     5    2
     4     3     6    2
     5     3     8    1
     6     3     9    1
     7     4    19    1
     8     4    23    1
     9     7    27    1
    10     7    29    1
    11     8    14    1
    12     9    16    1
    13    10    16   ar
    14    10    26   ar
    15    11    19   ar
    16    11    26   ar
    17    12    29   ar
    18    12    30   ar
    19    13    29   ar
    20    13    31   ar
    21    14    17    1
    22    15    16   ar
    23    15    18    1
    24    15    19   ar
    25    17    20    1
    26    18    21   ar
    27    18    22   ar
    28    21    24   ar
    29    22    25   ar
    30    23    27    1
    31    24    28   ar
    32    25    28   ar
    33    30    32   ar
    34    31    32   ar
    35     8    33    1
    36     9    34    1
    37    14    35    1
    38    14    36    1
    39    17    37    1
    40    17    38    1
    41    20    39    1
    42    20    40    1
    43    20    41    1
    44    21    42    1
    45    22    43    1
    46    23    44    1
    47    23    45    1
    48    24    46    1
    49    25    47    1
    50    26    48    1
    51    27    49    1
    52    27    50    1
    53    30    51    1
    54    31    52    1
@<TRIPOS>MOLECULE
16004692
 52 54 0 0 0
SMALL
GASTEIGER

@<TRIPOS>ATOM
      1 BR          0.0342   -5.1741   -1.6597 Br      1  LIG1       -0.0503
      2 BR         -1.1076    7.6838    4.8663 Br      1  LIG1       -0.0472
      3 S           4.4023   -0.2600    0.4163 S.O2    1  LIG1        0.1104
      4 O          -1.0053    1.2875   -0.1250 O.3     1  LIG1       -0.4724
      5 O           3.3826   -1.1506    0.9042 O.2     1  LIG1       -0.1381
      6 O           5.6861   -0.7621   -0.0087 O.2     1  LIG1       -0.1381
      7 O          -2.5731    2.1936    3.1036 O.3     1  LIG1       -0.4590
      8 N           4.6482    0.9290    1.5760 N.3     1  LIG1       -0.1771
      9 N           3.7648    0.6246   -0.8517 N.pl3   1  LIG1       -0.1889
     10 N           2.8561    2.5965   -0.1891 N.ar    1  LIG1       -0.2186
     11 N           0.5551    2.9892    0.1756 N.ar    1  LIG1       -0.2008
     12 N          -3.1856    4.2294    3.9454 N.ar    1  LIG1       -0.2022
     13 N          -0.8952    3.8148    3.4194 N.ar    1  LIG1       -0.2022
     14 C           4.7461    0.3989    2.9525 C.3     1  LIG1        0.0185
     15 C           1.2810    0.7882   -0.5674 C.ar    1  LIG1        0.0848
     16 C           2.5606    1.3377   -0.5726 C.ar    1  LIG1        0.1532
     17 C           4.6675    1.5480    3.9512 C.3     1  LIG1       -0.0416
     18 C           0.9631   -0.6234   -0.8674 C.ar    1  LIG1       -0.0094
     19 C           0.3127    1.7063   -0.1583 C.ar    1  LIG1        0.2276
     20 C           4.5472    1.0224    5.3732 C.3     1  LIG1       -0.0641
     21 C           1.3692   -1.2480   -2.0584 C.ar    1  LIG1       -0.0527
     22 C           0.2515   -1.4050    0.0672 C.ar    1  LIG1       -0.0527
     23 C          -1.8440    2.0226    0.7745 C.3     1  LIG1        0.1252
     24 C           1.1034   -2.6041   -2.2887 C.ar    1  LIG1       -0.0472
     25 C          -0.0388   -2.7506   -0.1696 C.ar    1  LIG1       -0.0472
     26 C           1.8262    3.3755    0.1370 C.ar    1  LIG1        0.1219
     27 C          -1.6573    1.5516    2.2194 C.3     1  LIG1        0.1267
     28 C           0.3991   -3.3472   -1.3445 C.ar    1  LIG1        0.0179
     29 C          -2.1883    3.4559    3.4914 C.ar    1  LIG1        0.3180
     30 C          -2.8401    5.4722    4.3434 C.ar    1  LIG1        0.0483
     31 C          -0.6062    5.0667    3.8359 C.ar    1  LIG1        0.0483
     32 C          -1.5506    5.9479    4.3086 C.ar    1  LIG1        0.0543
     33 H           3.9271    1.6461    1.4836 H       1  LIG1        0.1493
     34 H           3.6862   -0.0045   -1.6446 H       1  LIG1        0.1763
     35 H           5.6837   -0.1539    3.0686 H       1  LIG1        0.0442
     36 H           3.9088   -0.2802    3.1485 H       1  LIG1        0.0442
     37 H           3.7969    2.1790    3.7328 H       1  LIG1        0.0275
     38 H           5.5541    2.1853    3.8607 H       1  LIG1        0.0275
     39 H           3.6428    0.4147    5.4890 H       1  LIG1        0.0230
     40 H           4.4876    1.8526    6.0830 H       1  LIG1        0.0230
     41 H           5.4101    0.4035    5.6378 H       1  LIG1        0.0230
     42 H           1.8950   -0.6905   -2.8299 H       1  LIG1        0.0624
     43 H          -0.0722   -0.9732    1.0124 H       1  LIG1        0.0624
     44 H          -2.8794    1.8155    0.4772 H       1  LIG1        0.0731
     45 H          -1.7395    3.1087    0.6645 H       1  LIG1        0.0731
     46 H           1.4490   -3.0711   -3.2074 H       1  LIG1        0.0629
     47 H          -0.5911   -3.3184    0.5745 H       1  LIG1        0.0629
     48 H           2.0429    4.4047    0.4014 H       1  LIG1        0.1049
     49 H          -1.8849    0.4790    2.2601 H       1  LIG1        0.0732
     50 H          -0.6163    1.6198    2.5592 H       1  LIG1        0.0732
     51 H          -3.6647    6.0829    4.6994 H       1  LIG1        0.0843
     52 H           0.4432    5.3387    3.7728 H       1  LIG1        0.0843
@<TRIPOS>BOND
     1     1    28    1
     2     2    32    1
     3     3     5    2
     4     3     6    2
     5     3     8    1
     6     3     9    1
     7     4    19    1
     8     4    23    1
     9     7    27    1
    10     7    29    1
    11     8    14    1
    12     9    16    1
    13    10    16   ar
    14    10    26   ar
    15    11    19   ar
    16    11    26   ar
    17    12    29   ar
    18    12    30   ar
    19    13    29   ar
    20    13    31   ar
    21    14    17    1
    22    15    16   ar
    23    15    18    1
    24    15    19   ar
    25    17    20    1
    26    18    21   ar
    27    18    22   ar
    28    21    24   ar
    29    22    25   ar
    30    23    27    1
    31    24    28   ar
    32    25    28   ar
    33    30    32   ar
    34    31    32   ar
    35     8    33    1
    36     9    34    1
    37    14    35    1
    38    14    36    1
    39    17    37    1
    40    17    38    1
    41    20    39    1
    42    20    40    1
    43    20    41    1
    44    21    42    1
    45    22    43    1
    46    23    44    1
    47    23    45    1
    48    24    46    1
    49    25    47    1
    50    26    48    1
    51    27    49    1
    52    27    50    1
    53    30    51    1
    54    31    52    1
@<TRIPOS>MOLECULE
16004692
 52 54 0 0 0
SMALL
GASTEIGER

@<TRIPOS>ATOM
      1 BR         -0.1771   -5.1520   -1.3339 Br      1  LIG1       -0.0503
      2 BR         -2.8056   -3.7428    4.1548 Br      1  LIG1       -0.0472
      3 S           4.6248   -0.0767    0.1927 S.O2    1  LIG1        0.1104
      4 O          -0.8697    1.5833   -0.0894 O.3     1  LIG1       -0.4724
      5 O           3.9407   -1.2860    0.5672 O.2     1  LIG1       -0.1381
      6 O           6.0017   -0.0852   -0.2340 O.2     1  LIG1       -0.1381
      7 O          -0.1784    1.3553    2.6546 O.3     1  LIG1       -0.4590
      8 N           4.5266    1.0170    1.4425 N.3     1  LIG1       -0.1771
      9 N           3.8127    0.6719   -1.0584 N.pl3   1  LIG1       -0.1889
     10 N           2.9904    2.7007   -0.6814 N.ar    1  LIG1       -0.2186
     11 N           0.7509    3.2108   -0.1652 N.ar    1  LIG1       -0.2008
     12 N          -0.1802   -0.5612    3.8877 N.ar    1  LIG1       -0.2022
     13 N          -2.1192    0.0424    2.6323 N.ar    1  LIG1       -0.2022
     14 C           3.4673    0.8662    2.4454 C.3     1  LIG1        0.0185
     15 C           1.3502    0.8726   -0.6347 C.ar    1  LIG1        0.0848
     16 C           2.6331    1.4001   -0.7891 C.ar    1  LIG1        0.1532
     17 C           3.7604    1.7975    3.6183 C.3     1  LIG1       -0.0416
     18 C           0.9697   -0.5707   -0.8283 C.ar    1  LIG1       -0.0094
     19 C           0.4537    1.8944   -0.2859 C.ar    1  LIG1        0.2276
     20 C           2.7571    1.6117    4.7448 C.3     1  LIG1       -0.0641
     21 C          -0.1687   -1.1478   -0.2251 C.ar    1  LIG1       -0.0527
     22 C           1.7201   -1.4516   -1.6334 C.ar    1  LIG1       -0.0527
     23 C          -1.5711    2.4016    0.8536 C.3     1  LIG1        0.1252
     24 C          -0.5285   -2.4933   -0.3889 C.ar    1  LIG1       -0.0472
     25 C           1.3975   -2.8129   -1.7726 C.ar    1  LIG1       -0.0472
     26 C           2.0139    3.5503   -0.3835 C.ar    1  LIG1        0.1219
     27 C          -0.9692    2.4757    2.2693 C.3     1  LIG1        0.1267
     28 C           0.2707   -3.3275   -1.1499 C.ar    1  LIG1        0.0179
     29 C          -0.8862    0.2742    3.1117 C.ar    1  LIG1        0.3180
     30 C          -0.7778   -1.7303    4.1998 C.ar    1  LIG1        0.0483
     31 C          -2.6604   -1.1519    2.9596 C.ar    1  LIG1        0.0483
     32 C          -2.0259   -2.0863    3.7458 C.ar    1  LIG1        0.0543
     33 H           4.8330    1.9563    1.1998 H       1  LIG1        0.1493
     34 H           4.4808    1.2807   -1.5296 H       1  LIG1        0.1763
     35 H           3.4404   -0.1680    2.8051 H       1  LIG1        0.0442
     36 H           2.4955    1.1140    2.0163 H       1  LIG1        0.0442
     37 H           3.7399    2.8406    3.2804 H       1  LIG1        0.0275
     38 H           4.7702    1.6081    4.0016 H       1  LIG1        0.0275
     39 H           1.7501    1.8891    4.4221 H       1  LIG1        0.0230
     40 H           3.0221    2.2441    5.5974 H       1  LIG1        0.0230
     41 H           2.7356    0.5717    5.0863 H       1  LIG1        0.0230
     42 H          -0.8277   -0.5674    0.4077 H       1  LIG1        0.0624
     43 H           2.6039   -1.1127   -2.1664 H       1  LIG1        0.0624
     44 H          -2.5740    1.9669    0.9289 H       1  LIG1        0.0731
     45 H          -1.7300    3.4091    0.4477 H       1  LIG1        0.0731
     46 H          -1.4271   -2.8673    0.0936 H       1  LIG1        0.0629
     47 H           2.0450   -3.4553   -2.3633 H       1  LIG1        0.0629
     48 H           2.2703    4.6005   -0.3044 H       1  LIG1        0.1049
     49 H          -0.2887    3.3348    2.3072 H       1  LIG1        0.0732
     50 H          -1.7435    2.6966    3.0161 H       1  LIG1        0.0732
     51 H          -0.1908   -2.3893    4.8333 H       1  LIG1        0.0843
     52 H          -3.6432   -1.3399    2.5366 H       1  LIG1        0.0843
@<TRIPOS>BOND
     1     1    28    1
     2     2    32    1
     3     3     5    2
     4     3     6    2
     5     3     8    1
     6     3     9    1
     7     4    19    1
     8     4    23    1
     9     7    27    1
    10     7    29    1
    11     8    14    1
    12     9    16    1
    13    10    16   ar
    14    10    26   ar
    15    11    19   ar
    16    11    26   ar
    17    12    29   ar
    18    12    30   ar
    19    13    29   ar
    20    13    31   ar
    21    14    17    1
    22    15    16   ar
    23    15    18    1
    24    15    19   ar
    25    17    20    1
    26    18    21   ar
    27    18    22   ar
    28    21    24   ar
    29    22    25   ar
    30    23    27    1
    31    24    28   ar
    32    25    28   ar
    33    30    32   ar
    34    31    32   ar
    35     8    33    1
    36     9    34    1
    37    14    35    1
    38    14    36    1
    39    17    37    1
    40    17    38    1
    41    20    39    1
    42    20    40    1
    43    20    41    1
    44    21    42    1
    45    22    43    1
    46    23    44    1
    47    23    45    1
    48    24    46    1
    49    25    47    1
    50    26    48    1
    51    27    49    1
    52    27    50    1
    53    30    51    1
    54    31    52    1
@<TRIPOS>MOLECULE
16004692
 52 54 0 0 0
SMALL
GASTEIGER

@<TRIPOS>ATOM
      1 BR         -0.0709   -5.2951   -1.0990 Br      1  LIG1       -0.0503
      2 BR         -6.1951    6.8301    2.2385 Br      1  LIG1       -0.0472
      3 S           3.7432    0.5466   -3.0954 S.O2    1  LIG1        0.1104
      4 O          -0.5120    1.0403    0.9730 O.3     1  LIG1       -0.4724
      5 O           3.7397   -0.8583   -3.4335 O.2     1  LIG1       -0.1381
      6 O           2.8800    1.4876   -3.7603 O.2     1  LIG1       -0.1381
      7 O          -1.9150    2.9779    3.7304 O.3     1  LIG1       -0.4590
      8 N           5.3365    1.0499   -3.2842 N.3     1  LIG1       -0.1771
      9 N           3.6349    0.6283   -1.4454 N.pl3   1  LIG1       -0.1889
     10 N           2.7390    2.6476   -0.8843 N.ar    1  LIG1       -0.2186
     11 N           0.6952    2.9175    0.2823 N.ar    1  LIG1       -0.2008
     12 N          -2.7085    4.6049    2.2226 N.ar    1  LIG1       -0.2022
     13 N          -3.8816    4.0329    4.2183 N.ar    1  LIG1       -0.2022
     14 C           5.6269    2.4831   -3.0478 C.3     1  LIG1        0.0185
     15 C           1.3982    0.6842   -0.3851 C.ar    1  LIG1        0.0848
     16 C           2.5275    1.3172   -0.8936 C.ar    1  LIG1        0.1532
     17 C           6.2236    2.6962   -1.6604 C.3     1  LIG1       -0.0416
     18 C           1.0762   -0.7552   -0.5241 C.ar    1  LIG1       -0.0094
     19 C           0.5358    1.5808    0.2492 C.ar    1  LIG1        0.2276
     20 C           6.5674    4.1598   -1.4273 C.3     1  LIG1       -0.0641
     21 C          -0.1829   -1.1432   -1.0326 C.ar    1  LIG1       -0.0527
     22 C           1.9667   -1.7819   -0.1697 C.ar    1  LIG1       -0.0527
     23 C          -1.4469    1.9730    1.5253 C.3     1  LIG1        0.1252
     24 C          -0.5342   -2.4874   -1.1891 C.ar    1  LIG1       -0.0472
     25 C           1.6352   -3.1306   -0.3629 C.ar    1  LIG1       -0.0472
     26 C           1.7856    3.3888   -0.3214 C.ar    1  LIG1        0.1219
     27 C          -0.9043    2.7237    2.7505 C.3     1  LIG1        0.1267
     28 C           0.3854   -3.4766   -0.8669 C.ar    1  LIG1        0.0179
     29 C          -2.8485    3.9209    3.3705 C.ar    1  LIG1        0.3180
     30 C          -3.7077    5.4611    1.9172 C.ar    1  LIG1        0.0483
     31 C          -4.8510    4.9031    3.8645 C.ar    1  LIG1        0.0483
     32 C          -4.8164    5.6475    2.7093 C.ar    1  LIG1        0.0543
     33 H           5.6490    0.7445   -4.2066 H       1  LIG1        0.1493
     34 H           3.8220   -0.2936   -1.0750 H       1  LIG1        0.1763
     35 H           4.7397    3.1063   -3.1976 H       1  LIG1        0.0442
     36 H           6.3540    2.7972   -3.8067 H       1  LIG1        0.0442
     37 H           7.1260    2.0853   -1.5384 H       1  LIG1        0.0275
     38 H           5.5248    2.3754   -0.8827 H       1  LIG1        0.0275
     39 H           7.3459    4.4940   -2.1201 H       1  LIG1        0.0230
     40 H           6.9348    4.3066   -0.4066 H       1  LIG1        0.0230
     41 H           5.6878    4.7970   -1.5648 H       1  LIG1        0.0230
     42 H          -0.9204   -0.3892   -1.3070 H       1  LIG1        0.0624
     43 H           2.9312   -1.5612    0.2800 H       1  LIG1        0.0624
     44 H          -2.3156    1.3772    1.8305 H       1  LIG1        0.0731
     45 H          -1.8146    2.6528    0.7471 H       1  LIG1        0.0731
     46 H          -1.5221   -2.7432   -1.5639 H       1  LIG1        0.0629
     47 H           2.3577   -3.9018   -0.1090 H       1  LIG1        0.0629
     48 H           1.9178    4.4650   -0.3382 H       1  LIG1        0.1049
     49 H          -0.1487    2.1031    3.2467 H       1  LIG1        0.0732
     50 H          -0.3884    3.6532    2.4804 H       1  LIG1        0.0732
     51 H          -3.5791    5.9986    0.9821 H       1  LIG1        0.0843
     52 H          -5.6788    4.9721    4.5642 H       1  LIG1        0.0843
@<TRIPOS>BOND
     1     1    28    1
     2     2    32    1
     3     3     5    2
     4     3     6    2
     5     3     8    1
     6     3     9    1
     7     4    19    1
     8     4    23    1
     9     7    27    1
    10     7    29    1
    11     8    14    1
    12     9    16    1
    13    10    16   ar
    14    10    26   ar
    15    11    19   ar
    16    11    26   ar
    17    12    29   ar
    18    12    30   ar
    19    13    29   ar
    20    13    31   ar
    21    14    17    1
    22    15    16   ar
    23    15    18    1
    24    15    19   ar
    25    17    20    1
    26    18    21   ar
    27    18    22   ar
    28    21    24   ar
    29    22    25   ar
    30    23    27    1
    31    24    28   ar
    32    25    28   ar
    33    30    32   ar
    34    31    32   ar
    35     8    33    1
    36     9    34    1
    37    14    35    1
    38    14    36    1
    39    17    37    1
    40    17    38    1
    41    20    39    1
    42    20    40    1
    43    20    41    1
    44    21    42    1
    45    22    43    1
    46    23    44    1
    47    23    45    1
    48    24    46    1
    49    25    47    1
    50    26    48    1
    51    27    49    1
    52    27    50    1
    53    30    51    1
    54    31    52    1
@<TRIPOS>MOLECULE
16004692
 52 54 0 0 0
SMALL
GASTEIGER

@<TRIPOS>ATOM
      1 BR         -0.2274   -5.1968   -0.9922 Br      1  LIG1       -0.0503
      2 BR         -0.3164    1.5790    9.3099 Br      1  LIG1       -0.0472
      3 S           3.7583    0.4609   -3.0260 S.O2    1  LIG1        0.1104
      4 O          -0.7312    1.2679    0.6703 O.3     1  LIG1       -0.4724
      5 O           3.8006   -0.9673   -3.2557 O.2     1  LIG1       -0.1381
      6 O           2.8983    1.3280   -3.7867 O.2     1  LIG1       -0.1381
      7 O          -1.5452    3.1522    3.7116 O.3     1  LIG1       -0.4590
      8 N           5.3471    0.9883   -3.1996 N.3     1  LIG1       -0.1771
      9 N           3.5949    0.6660   -1.3912 N.pl3   1  LIG1       -0.1889
     10 N           2.7156    2.7135   -0.9517 N.ar    1  LIG1       -0.2186
     11 N           0.6010    3.0758    0.0441 N.ar    1  LIG1       -0.2008
     12 N          -1.0636    1.4604    5.2458 N.ar    1  LIG1       -0.2022
     13 N          -1.1633    3.7585    5.8960 N.ar    1  LIG1       -0.2022
     14 C           5.6010    2.4332   -3.0028 C.3     1  LIG1        0.0185
     15 C           1.2861    0.7991   -0.4934 C.ar    1  LIG1        0.0848
     16 C           2.4676    1.3889   -0.9341 C.ar    1  LIG1        0.1532
     17 C           6.2264    2.6850   -1.6339 C.3     1  LIG1       -0.0416
     18 C           0.9496   -0.6428   -0.5850 C.ar    1  LIG1       -0.0094
     19 C           0.4077    1.7416    0.0450 C.ar    1  LIG1        0.2276
     20 C           6.5276    4.1615   -1.4259 C.3     1  LIG1       -0.0641
     21 C          -0.2968   -1.0435   -1.1139 C.ar    1  LIG1       -0.0527
     22 C           1.8166   -1.6644   -0.1606 C.ar    1  LIG1       -0.0527
     23 C          -1.4283    2.2080    1.4962 C.3     1  LIG1        0.1252
     24 C          -0.6584   -2.3907   -1.2199 C.ar    1  LIG1       -0.0472
     25 C           1.4788   -3.0174   -0.3061 C.ar    1  LIG1       -0.0472
     26 C           1.7463    3.4982   -0.4876 C.ar    1  LIG1        0.1219
     27 C          -0.6475    2.5806    2.7586 C.3     1  LIG1        0.1267
     28 C           0.2403   -3.3738   -0.8291 C.ar    1  LIG1        0.0179
     29 C          -1.2167    2.7715    4.9900 C.ar    1  LIG1        0.3180
     30 C          -0.7959    1.1389    6.5289 C.ar    1  LIG1        0.0483
     31 C          -0.8954    3.3773    7.1636 C.ar    1  LIG1        0.0483
     32 C          -0.6967    2.0681    7.5384 C.ar    1  LIG1        0.0543
     33 H           5.6886    0.6570   -4.1021 H       1  LIG1        0.1493
     34 H           3.7920   -0.2131   -0.9334 H       1  LIG1        0.1763
     35 H           4.6910    3.0261   -3.1361 H       1  LIG1        0.0442
     36 H           6.2972    2.7545   -3.7869 H       1  LIG1        0.0442
     37 H           7.1515    2.1059   -1.5291 H       1  LIG1        0.0275
     38 H           5.5588    2.3491   -0.8347 H       1  LIG1        0.0275
     39 H           7.2716    4.5145   -2.1468 H       1  LIG1        0.0230
     40 H           6.9230    4.3305   -0.4192 H       1  LIG1        0.0230
     41 H           5.6228    4.7676   -1.5397 H       1  LIG1        0.0230
     42 H          -1.0191   -0.2973   -1.4452 H       1  LIG1        0.0624
     43 H           2.7685   -1.4383    0.3105 H       1  LIG1        0.0624
     44 H          -2.3614    1.7149    1.7953 H       1  LIG1        0.0731
     45 H          -1.7407    3.0931    0.9277 H       1  LIG1        0.0731
     46 H          -1.6381   -2.6536   -1.6103 H       1  LIG1        0.0629
     47 H           2.1873   -3.7830    0.0005 H       1  LIG1        0.0629
     48 H           1.9111    4.5693   -0.5266 H       1  LIG1        0.1049
     49 H          -0.1010    1.6999    3.1182 H       1  LIG1        0.0732
     50 H           0.1085    3.3404    2.5314 H       1  LIG1        0.0732
     51 H          -0.6622    0.0773    6.7150 H       1  LIG1        0.0843
     52 H          -0.8472    4.1890    7.8839 H       1  LIG1        0.0843
@<TRIPOS>BOND
     1     1    28    1
     2     2    32    1
     3     3     5    2
     4     3     6    2
     5     3     8    1
     6     3     9    1
     7     4    19    1
     8     4    23    1
     9     7    27    1
    10     7    29    1
    11     8    14    1
    12     9    16    1
    13    10    16   ar
    14    10    26   ar
    15    11    19   ar
    16    11    26   ar
    17    12    29   ar
    18    12    30   ar
    19    13    29   ar
    20    13    31   ar
    21    14    17    1
    22    15    16   ar
    23    15    18    1
    24    15    19   ar
    25    17    20    1
    26    18    21   ar
    27    18    22   ar
    28    21    24   ar
    29    22    25   ar
    30    23    27    1
    31    24    28   ar
    32    25    28   ar
    33    30    32   ar
    34    31    32   ar
    35     8    33    1
    36     9    34    1
    37    14    35    1
    38    14    36    1
    39    17    37    1
    40    17    38    1
    41    20    39    1
    42    20    40    1
    43    20    41    1
    44    21    42    1
    45    22    43    1
    46    23    44    1
    47    23    45    1
    48    24    46    1
    49    25    47    1
    50    26    48    1
    51    27    49    1
    52    27    50    1
    53    30    51    1
    54    31    52    1
@<TRIPOS>MOLECULE
16004692
 52 54 0 0 0
SMALL
GASTEIGER

@<TRIPOS>ATOM
      1 BR         -0.1524   -5.1794   -0.9396 Br      1  LIG1       -0.0503
      2 BR          1.9995    5.9685    8.0598 Br      1  LIG1       -0.0472
      3 S           3.6694    0.3863   -3.1614 S.O2    1  LIG1        0.1104
      4 O          -0.5502    1.3153    0.7097 O.3     1  LIG1       -0.4724
      5 O           3.7220   -1.0371   -3.4028 O.2     1  LIG1       -0.1381
      6 O           2.6826    1.2178   -3.7981 O.2     1  LIG1       -0.1381
      7 O          -1.1151    3.5031    3.6282 O.3     1  LIG1       -0.4590
      8 N           5.1940    0.9635   -3.5425 N.3     1  LIG1       -0.1771
      9 N           3.6842    0.5806   -1.5108 N.pl3   1  LIG1       -0.1889
     10 N           2.9025    2.6605   -0.9991 N.ar    1  LIG1       -0.2186
     11 N           0.8044    3.0853    0.0109 N.ar    1  LIG1       -0.2008
     12 N          -1.0116    4.2602    5.7923 N.ar    1  LIG1       -0.2022
     13 N           0.9394    4.3242    4.4194 N.ar    1  LIG1       -0.2022
     14 C           5.5785    2.3336   -3.1515 C.3     1  LIG1        0.0185
     15 C           1.4311    0.7909   -0.4939 C.ar    1  LIG1        0.0848
     16 C           2.6175    1.3440   -0.9679 C.ar    1  LIG1        0.1532
     17 C           4.9208    3.3960   -4.0226 C.3     1  LIG1       -0.0416
     18 C           1.0686   -0.6411   -0.5638 C.ar    1  LIG1       -0.0094
     19 C           0.5821    1.7563    0.0442 C.ar    1  LIG1        0.2276
     20 C           5.4600    4.7826   -3.7060 C.3     1  LIG1       -0.0641
     21 C          -0.1616   -1.0286   -1.1346 C.ar    1  LIG1       -0.0527
     22 C           1.9053   -1.6624   -0.0820 C.ar    1  LIG1       -0.0527
     23 C          -1.1861    2.2920    1.5441 C.3     1  LIG1        0.1252
     24 C          -0.5352   -2.3723   -1.2336 C.ar    1  LIG1       -0.0472
     25 C           1.5523   -3.0118   -0.2123 C.ar    1  LIG1       -0.0472
     26 C           1.9570    3.4733   -0.5324 C.ar    1  LIG1        0.1219
     27 C          -0.3569    2.6370    2.7848 C.3     1  LIG1        0.1267
     28 C           0.3324   -3.3597   -0.7846 C.ar    1  LIG1        0.0179
     29 C          -0.3514    4.0232    4.6495 C.ar    1  LIG1        0.3180
     30 C          -0.2914    4.8277    6.7843 C.ar    1  LIG1        0.0483
     31 C           1.6072    4.8991    5.4416 C.ar    1  LIG1        0.0483
     32 C           1.0346    5.1732    6.6608 C.ar    1  LIG1        0.0543
     33 H           5.4038    0.7484   -4.5165 H       1  LIG1        0.1493
     34 H           3.8243   -0.3357   -1.1036 H       1  LIG1        0.1763
     35 H           6.6673    2.3958   -3.2725 H       1  LIG1        0.0442
     36 H           5.3876    2.5074   -2.0891 H       1  LIG1        0.0442
     37 H           3.8382    3.4077   -3.8673 H       1  LIG1        0.0275
     38 H           5.0906    3.1723   -5.0821 H       1  LIG1        0.0275
     39 H           5.2739    5.0449   -2.6594 H       1  LIG1        0.0230
     40 H           4.9701    5.5319   -4.3356 H       1  LIG1        0.0230
     41 H           6.5378    4.8372   -3.8887 H       1  LIG1        0.0230
     42 H          -0.8552   -0.2756   -1.5088 H       1  LIG1        0.0624
     43 H           2.8445   -1.4305    0.4144 H       1  LIG1        0.0624
     44 H          -2.1365    1.8527    1.8714 H       1  LIG1        0.0731
     45 H          -1.4696    3.1870    0.9751 H       1  LIG1        0.0731
     46 H          -1.4985   -2.6302   -1.6660 H       1  LIG1        0.0629
     47 H           2.2342   -3.7816    0.1400 H       1  LIG1        0.0629
     48 H           2.1468    4.5396   -0.5828 H       1  LIG1        0.1049
     49 H          -0.1089    1.7164    3.3283 H       1  LIG1        0.0732
     50 H           0.5837    3.0999    2.4720 H       1  LIG1        0.0732
     51 H          -0.8409    5.0004    7.7051 H       1  LIG1        0.0843
     52 H           2.6457    5.1385    5.2317 H       1  LIG1        0.0843
@<TRIPOS>BOND
     1     1    28    1
     2     2    32    1
     3     3     5    2
     4     3     6    2
     5     3     8    1
     6     3     9    1
     7     4    19    1
     8     4    23    1
     9     7    27    1
    10     7    29    1
    11     8    14    1
    12     9    16    1
    13    10    16   ar
    14    10    26   ar
    15    11    19   ar
    16    11    26   ar
    17    12    29   ar
    18    12    30   ar
    19    13    29   ar
    20    13    31   ar
    21    14    17    1
    22    15    16   ar
    23    15    18    1
    24    15    19   ar
    25    17    20    1
    26    18    21   ar
    27    18    22   ar
    28    21    24   ar
    29    22    25   ar
    30    23    27    1
    31    24    28   ar
    32    25    28   ar
    33    30    32   ar
    34    31    32   ar
    35     8    33    1
    36     9    34    1
    37    14    35    1
    38    14    36    1
    39    17    37    1
    40    17    38    1
    41    20    39    1
    42    20    40    1
    43    20    41    1
    44    21    42    1
    45    22    43    1
    46    23    44    1
    47    23    45    1
    48    24    46    1
    49    25    47    1
    50    26    48    1
    51    27    49    1
    52    27    50    1
    53    30    51    1
    54    31    52    1
@<TRIPOS>MOLECULE
16004692
 52 54 0 0 0
SMALL
GASTEIGER

@<TRIPOS>ATOM
      1 BR         -0.1105   -5.1128   -0.8832 Br      1  LIG1       -0.0503
      2 BR          2.0215    5.9695    8.0456 Br      1  LIG1       -0.0472
      3 S           3.7164    0.1636   -2.9847 S.O2    1  LIG1        0.1104
      4 O          -0.6041    1.3850    0.6564 O.3     1  LIG1       -0.4724
      5 O           3.9066   -1.2616   -2.8762 O.2     1  LIG1       -0.1381
      6 O           2.6768    0.7611   -3.7814 O.2     1  LIG1       -0.1381
      7 O          -1.1233    3.4962    3.6388 O.3     1  LIG1       -0.4590
      8 N           5.2027    0.8272   -3.4132 N.3     1  LIG1       -0.1771
      9 N           3.7071    0.7314   -1.4205 N.pl3   1  LIG1       -0.1889
     10 N           2.8260    2.7869   -1.0496 N.ar    1  LIG1       -0.2186
     11 N           0.7067    3.1782   -0.0678 N.ar    1  LIG1       -0.2008
     12 N          -1.0028    4.2550    5.8006 N.ar    1  LIG1       -0.2022
     13 N           0.9408    4.3095    4.4176 N.ar    1  LIG1       -0.2022
     14 C           5.9452    0.1602   -4.5030 C.3     1  LIG1        0.0185
     15 C           1.3884    0.8922   -0.5422 C.ar    1  LIG1        0.0848
     16 C           2.5667    1.4673   -1.0084 C.ar    1  LIG1        0.1532
     17 C           5.2902    0.3605   -5.8604 C.3     1  LIG1       -0.0416
     18 C           1.0522   -0.5506   -0.5888 C.ar    1  LIG1       -0.0094
     19 C           0.5148    1.8463   -0.0207 C.ar    1  LIG1        0.2276
     20 C           6.1196   -0.2870   -6.9596 C.3     1  LIG1       -0.0641
     21 C          -0.1672   -0.9673   -1.1643 C.ar    1  LIG1       -0.0527
     22 C           1.8953   -1.5522   -0.0794 C.ar    1  LIG1       -0.0527
     23 C          -1.2265    2.3376    1.5262 C.3     1  LIG1        0.1252
     24 C          -0.5241   -2.3174   -1.2397 C.ar    1  LIG1       -0.0472
     25 C           1.5598   -2.9089   -0.1859 C.ar    1  LIG1       -0.0472
     26 C           1.8552    3.5842   -0.6082 C.ar    1  LIG1        0.1219
     27 C          -0.3675    2.6747    2.7496 C.3     1  LIG1        0.1267
     28 C           0.3503   -3.2845   -0.7620 C.ar    1  LIG1        0.0179
     29 C          -0.3499    4.0138    4.6543 C.ar    1  LIG1        0.3180
     30 C          -0.2767    4.8247    6.7872 C.ar    1  LIG1        0.0483
     31 C           1.6145    4.8885    5.4340 C.ar    1  LIG1        0.0483
     32 C           1.0488    5.1685    6.6552 C.ar    1  LIG1        0.0543
     33 H           5.7753    0.8997   -2.5740 H       1  LIG1        0.1493
     34 H           3.9338   -0.0419   -0.8066 H       1  LIG1        0.1763
     35 H           6.0814   -0.9018   -4.2700 H       1  LIG1        0.0442
     36 H           6.9515    0.5977   -4.5163 H       1  LIG1        0.0442
     37 H           5.1782    1.4309   -6.0683 H       1  LIG1        0.0275
     38 H           4.2860   -0.0761   -5.8729 H       1  LIG1        0.0275
     39 H           7.1250    0.1449   -7.0004 H       1  LIG1        0.0230
     40 H           5.6448   -0.1375   -7.9338 H       1  LIG1        0.0230
     41 H           6.2178   -1.3646   -6.7910 H       1  LIG1        0.0230
     42 H          -0.8665   -0.2311   -1.5612 H       1  LIG1        0.0624
     43 H           2.8268   -1.3050    0.4206 H       1  LIG1        0.0624
     44 H          -2.1612    1.8801    1.8730 H       1  LIG1        0.0731
     45 H          -1.5372    3.2380    0.9809 H       1  LIG1        0.0731
     46 H          -1.4798   -2.5954   -1.6764 H       1  LIG1        0.0629
     47 H           2.2485   -3.6629    0.1868 H       1  LIG1        0.0629
     48 H           2.0208    4.6539   -0.6705 H       1  LIG1        0.1049
     49 H          -0.0759    1.7485    3.2611 H       1  LIG1        0.0732
     50 H           0.5476    3.1749    2.4186 H       1  LIG1        0.0732
     51 H          -0.8211    5.0013    7.7103 H       1  LIG1        0.0843
     52 H           2.6518    5.1268    5.2176 H       1  LIG1        0.0843
@<TRIPOS>BOND
     1     1    28    1
     2     2    32    1
     3     3     5    2
     4     3     6    2
     5     3     8    1
     6     3     9    1
     7     4    19    1
     8     4    23    1
     9     7    27    1
    10     7    29    1
    11     8    14    1
    12     9    16    1
    13    10    16   ar
    14    10    26   ar
    15    11    19   ar
    16    11    26   ar
    17    12    29   ar
    18    12    30   ar
    19    13    29   ar
    20    13    31   ar
    21    14    17    1
    22    15    16   ar
    23    15    18    1
    24    15    19   ar
    25    17    20    1
    26    18    21   ar
    27    18    22   ar
    28    21    24   ar
    29    22    25   ar
    30    23    27    1
    31    24    28   ar
    32    25    28   ar
    33    30    32   ar
    34    31    32   ar
    35     8    33    1
    36     9    34    1
    37    14    35    1
    38    14    36    1
    39    17    37    1
    40    17    38    1
    41    20    39    1
    42    20    40    1
    43    20    41    1
    44    21    42    1
    45    22    43    1
    46    23    44    1
    47    23    45    1
    48    24    46    1
    49    25    47    1
    50    26    48    1
    51    27    49    1
    52    27    50    1
    53    30    51    1
    54    31    52    1
@<TRIPOS>MOLECULE
16004692
 52 54 0 0 0
SMALL
GASTEIGER

@<TRIPOS>ATOM
      1 BR         -0.3732   -5.1759   -0.9189 Br      1  LIG1       -0.0503
      2 BR          1.9845    5.7703    8.0011 Br      1  LIG1       -0.0472
      3 S           4.6214   -0.1259   -0.2406 S.O2    1  LIG1        0.1104
      4 O          -0.6877    1.4598    0.4690 O.3     1  LIG1       -0.4724
      5 O           5.8490    0.6263   -0.3247 O.2     1  LIG1       -0.1381
      6 O           3.8885   -0.2966    0.9871 O.2     1  LIG1       -0.1381
      7 O          -1.1731    3.5463    3.4752 O.3     1  LIG1       -0.4590
      8 N           4.9363   -1.6415   -0.8986 N.3     1  LIG1       -0.1771
      9 N           3.6282    0.4280   -1.4779 N.pl3   1  LIG1       -0.1889
     10 N           2.9412    2.5493   -1.0844 N.ar    1  LIG1       -0.2186
     11 N           0.8514    3.1074   -0.1177 N.ar    1  LIG1       -0.2008
     12 N          -1.0582    4.2112    5.6688 N.ar    1  LIG1       -0.2022
     13 N           0.8988    4.2729    4.3046 N.ar    1  LIG1       -0.2022
     14 C           6.0925   -2.3914   -0.3504 C.3     1  LIG1        0.0185
     15 C           1.3485    0.7716   -0.5608 C.ar    1  LIG1        0.0848
     16 C           2.5658    1.2589   -1.0238 C.ar    1  LIG1        0.1532
     17 C           6.0471   -2.5962    1.1576 C.3     1  LIG1       -0.0416
     18 C           0.9485   -0.6557   -0.6260 C.ar    1  LIG1       -0.0094
     19 C           0.5374    1.7927   -0.0784 C.ar    1  LIG1        0.2276
     20 C           7.1830   -3.5018    1.6141 C.3     1  LIG1       -0.0641
     21 C           1.1722   -1.4167   -1.7916 C.ar    1  LIG1       -0.0527
     22 C           0.3167   -1.3060    0.4499 C.ar    1  LIG1       -0.0527
     23 C          -1.2550    2.4568    1.3290 C.3     1  LIG1        0.1252
     24 C           0.7939   -2.7610   -1.8772 C.ar    1  LIG1       -0.0472
     25 C          -0.0853   -2.6449    0.3630 C.ar    1  LIG1       -0.0472
     26 C           2.0457    3.4195   -0.6213 C.ar    1  LIG1        0.1219
     27 C          -0.4586    2.6503    2.6241 C.3     1  LIG1        0.1267
     28 C           0.1599   -3.3671   -0.7996 C.ar    1  LIG1        0.0179
     29 C          -0.3986    3.9944    4.5213 C.ar    1  LIG1        0.3180
     30 C          -0.3279    4.7271    6.6815 C.ar    1  LIG1        0.0483
     31 C           1.5781    4.7925    5.3488 C.ar    1  LIG1        0.0483
     32 C           1.0073    5.0415    6.5743 C.ar    1  LIG1        0.0543
     33 H           5.0404   -1.5412   -1.9067 H       1  LIG1        0.1493
     34 H           4.2234    1.0234   -2.0553 H       1  LIG1        0.1763
     35 H           7.0188   -1.8884   -0.6516 H       1  LIG1        0.0442
     36 H           6.0939   -3.3681   -0.8499 H       1  LIG1        0.0442
     37 H           5.0876   -3.0333    1.4559 H       1  LIG1        0.0275
     38 H           6.1430   -1.6372    1.6783 H       1  LIG1        0.0275
     39 H           7.0903   -4.4995    1.1735 H       1  LIG1        0.0230
     40 H           7.1727   -3.6082    2.7032 H       1  LIG1        0.0230
     41 H           8.1547   -3.0884    1.3232 H       1  LIG1        0.0230
     42 H           1.6488   -0.9668   -2.6605 H       1  LIG1        0.0624
     43 H           0.1269   -0.7754    1.3808 H       1  LIG1        0.0624
     44 H          -2.2622    2.1087    1.5884 H       1  LIG1        0.0731
     45 H          -1.4125    3.4052    0.7990 H       1  LIG1        0.0731
     46 H           0.9961   -3.3173   -2.7884 H       1  LIG1        0.0629
     47 H          -0.5851   -3.1085    1.2094 H       1  LIG1        0.0629
     48 H           2.3107    4.4717   -0.6486 H       1  LIG1        0.1049
     49 H          -0.3366    1.6838    3.1293 H       1  LIG1        0.0732
     50 H           0.5410    3.0225    2.3798 H       1  LIG1        0.0732
     51 H          -0.8771    4.8854    7.6051 H       1  LIG1        0.0843
     52 H           2.6238    5.0093    5.1509 H       1  LIG1        0.0843
@<TRIPOS>BOND
     1     1    28    1
     2     2    32    1
     3     3     5    2
     4     3     6    2
     5     3     8    1
     6     3     9    1
     7     4    19    1
     8     4    23    1
     9     7    27    1
    10     7    29    1
    11     8    14    1
    12     9    16    1
    13    10    16   ar
    14    10    26   ar
    15    11    19   ar
    16    11    26   ar
    17    12    29   ar
    18    12    30   ar
    19    13    29   ar
    20    13    31   ar
    21    14    17    1
    22    15    16   ar
    23    15    18    1
    24    15    19   ar
    25    17    20    1
    26    18    21   ar
    27    18    22   ar
    28    21    24   ar
    29    22    25   ar
    30    23    27    1
    31    24    28   ar
    32    25    28   ar
    33    30    32   ar
    34    31    32   ar
    35     8    33    1
    36     9    34    1
    37    14    35    1
    38    14    36    1
    39    17    37    1
    40    17    38    1
    41    20    39    1
    42    20    40    1
    43    20    41    1
    44    21    42    1
    45    22    43    1
    46    23    44    1
    47    23    45    1
    48    24    46    1
    49    25    47    1
    50    26    48    1
    51    27    49    1
    52    27    50    1
    53    30    51    1
    54    31    52    1
@<TRIPOS>MOLECULE
16004692
 52 54 0 0 0
SMALL
GASTEIGER

@<TRIPOS>ATOM
      1 BR         -0.7036   -5.0071   -1.1159 Br      1  LIG1       -0.0503
      2 BR         -1.5473   10.6564    1.1796 Br      1  LIG1       -0.0472
      3 S           4.7523   -0.3081   -0.1431 S.O2    1  LIG1        0.1104
      4 O          -0.5677    1.6573    0.5815 O.3     1  LIG1       -0.4724
      5 O           5.9811    0.4357   -0.2738 O.2     1  LIG1       -0.1381
      6 O           4.0732   -0.5062    1.1124 O.2     1  LIG1       -0.1381
      7 O          -2.4849    4.8412    0.2655 O.3     1  LIG1       -0.4590
      8 N           5.0227   -1.8093   -0.8511 N.3     1  LIG1       -0.1771
      9 N           3.6996    0.2849   -1.3125 N.pl3   1  LIG1       -0.1889
     10 N           3.2536    2.4022   -0.6672 N.ar    1  LIG1       -0.2186
     11 N           1.2277    3.0735    0.3334 N.ar    1  LIG1       -0.2008
     12 N          -3.2826    6.9065    0.8990 N.ar    1  LIG1       -0.2022
     13 N          -1.0011    6.6724    0.2378 N.ar    1  LIG1       -0.2022
     14 C           6.1821   -2.5900   -0.3528 C.3     1  LIG1        0.0185
     15 C           1.4432    0.7718   -0.3919 C.ar    1  LIG1        0.0848
     16 C           2.7261    1.1699   -0.7713 C.ar    1  LIG1        0.1532
     17 C           6.2200   -2.7618    1.1595 C.3     1  LIG1       -0.0416
     18 C           0.9112   -0.6015   -0.5696 C.ar    1  LIG1       -0.0094
     19 C           0.7206    1.8398    0.1291 C.ar    1  LIG1        0.2276
     20 C           7.3565   -3.6856    1.5731 C.3     1  LIG1       -0.0641
     21 C           1.1842   -1.3536   -1.7299 C.ar    1  LIG1       -0.0527
     22 C           0.1173   -1.2239    0.4143 C.ar    1  LIG1       -0.0527
     23 C          -1.5338    2.5961    0.0725 C.3     1  LIG1        0.1252
     24 C           0.7174   -2.6635   -1.8909 C.ar    1  LIG1       -0.0472
     25 C          -0.3764   -2.5247    0.2488 C.ar    1  LIG1       -0.0472
     26 C           2.4721    3.2989   -0.0797 C.ar    1  LIG1        0.1219
     27 C          -1.2864    4.0711    0.4063 C.3     1  LIG1        0.1267
     28 C          -0.0660   -3.2421   -0.9004 C.ar    1  LIG1        0.0179
     29 C          -2.2314    6.1819    0.4855 C.ar    1  LIG1        0.3180
     30 C          -3.0490    8.2224    1.1000 C.ar    1  LIG1        0.0483
     31 C          -0.8287    7.9958    0.4502 C.ar    1  LIG1        0.0483
     32 C          -1.8276    8.8236    0.8891 C.ar    1  LIG1        0.0543
     33 H           5.1050   -1.6833   -1.8581 H       1  LIG1        0.1493
     34 H           4.2894    0.8585   -1.9167 H       1  LIG1        0.1763
     35 H           7.1045   -2.1232   -0.7170 H       1  LIG1        0.0442
     36 H           6.1216   -3.5757   -0.8302 H       1  LIG1        0.0442
     37 H           5.2680   -3.1653    1.5226 H       1  LIG1        0.0275
     38 H           6.3728   -1.7952    1.6523 H       1  LIG1        0.0275
     39 H           7.2148   -4.6898    1.1620 H       1  LIG1        0.0230
     40 H           7.4032   -3.7662    2.6634 H       1  LIG1        0.0230
     41 H           8.3199   -3.3026    1.2201 H       1  LIG1        0.0230
     42 H           1.7812   -0.9315   -2.5358 H       1  LIG1        0.0624
     43 H          -0.1219   -0.7037    1.3411 H       1  LIG1        0.0624
     44 H          -2.4995    2.2965    0.4970 H       1  LIG1        0.0731
     45 H          -1.6372    2.4596   -1.0120 H       1  LIG1        0.0731
     46 H           0.9745   -3.2179   -2.7906 H       1  LIG1        0.0629
     47 H          -0.9910   -2.9655    1.0289 H       1  LIG1        0.0629
     48 H           2.8730    4.2950    0.0730 H       1  LIG1        0.1049
     49 H          -0.9068    4.1664    1.4315 H       1  LIG1        0.0732
     50 H          -0.5446    4.4459   -0.3087 H       1  LIG1        0.0732
     51 H          -3.9074    8.7887    1.4478 H       1  LIG1        0.0843
     52 H           0.1750    8.3622    0.2449 H       1  LIG1        0.0843
@<TRIPOS>BOND
     1     1    28    1
     2     2    32    1
     3     3     5    2
     4     3     6    2
     5     3     8    1
     6     3     9    1
     7     4    19    1
     8     4    23    1
     9     7    27    1
    10     7    29    1
    11     8    14    1
    12     9    16    1
    13    10    16   ar
    14    10    26   ar
    15    11    19   ar
    16    11    26   ar
    17    12    29   ar
    18    12    30   ar
    19    13    29   ar
    20    13    31   ar
    21    14    17    1
    22    15    16   ar
    23    15    18    1
    24    15    19   ar
    25    17    20    1
    26    18    21   ar
    27    18    22   ar
    28    21    24   ar
    29    22    25   ar
    30    23    27    1
    31    24    28   ar
    32    25    28   ar
    33    30    32   ar
    34    31    32   ar
    35     8    33    1
    36     9    34    1
    37    14    35    1
    38    14    36    1
    39    17    37    1
    40    17    38    1
    41    20    39    1
    42    20    40    1
    43    20    41    1
    44    21    42    1
    45    22    43    1
    46    23    44    1
    47    23    45    1
    48    24    46    1
    49    25    47    1
    50    26    48    1
    51    27    49    1
    52    27    50    1
    53    30    51    1
    54    31    52    1
@<TRIPOS>MOLECULE
16004692
 52 54 0 0 0
SMALL
GASTEIGER

@<TRIPOS>ATOM
      1 BR         -0.6805   -5.0100   -1.1540 Br      1  LIG1       -0.0503
      2 BR         -1.4401   10.6679    1.1680 Br      1  LIG1       -0.0472
      3 S           4.6407   -0.3119   -0.1831 S.O2    1  LIG1        0.1104
      4 O          -0.6865    1.6646    0.6194 O.3     1  LIG1       -0.4724
      5 O           5.8431    0.4884   -0.1271 O.2     1  LIG1       -0.1381
      6 O           3.9317   -0.7459    0.9898 O.2     1  LIG1       -0.1381
      7 O          -2.5587    4.8820    0.2528 O.3     1  LIG1       -0.4590
      8 N           5.0080   -1.6581   -1.1118 N.3     1  LIG1       -0.1771
      9 N           3.6157    0.4101   -1.2939 N.pl3   1  LIG1       -0.1889
     10 N           3.1472    2.4719   -0.5379 N.ar    1  LIG1       -0.2186
     11 N           1.1093    3.0857    0.4632 N.ar    1  LIG1       -0.2008
     12 N          -3.2870    6.9684    0.9098 N.ar    1  LIG1       -0.2022
     13 N          -1.0333    6.6780    0.1841 N.ar    1  LIG1       -0.2022
     14 C           6.0308   -2.5666   -0.5495 C.3     1  LIG1        0.0185
     15 C           1.3499    0.8120   -0.3406 C.ar    1  LIG1        0.0848
     16 C           2.6313    1.2398   -0.6948 C.ar    1  LIG1        0.1532
     17 C           7.3458   -2.3637   -1.3002 C.3     1  LIG1       -0.0416
     18 C           0.8349   -0.5701   -0.5532 C.ar    1  LIG1       -0.0094
     19 C           0.6118    1.8586    0.2022 C.ar    1  LIG1        0.2276
     20 C           8.4190   -3.3372   -0.8496 C.3     1  LIG1       -0.0641
     21 C           1.2019   -1.3384   -1.6777 C.ar    1  LIG1       -0.0527
     22 C          -0.0271   -1.1921    0.3721 C.ar    1  LIG1       -0.0527
     23 C          -1.6500    2.6098    0.1137 C.3     1  LIG1        0.1252
     24 C           0.7666   -2.6584   -1.8530 C.ar    1  LIG1       -0.0472
     25 C          -0.4951   -2.5007    0.1876 C.ar    1  LIG1       -0.0472
     26 C           2.3543    3.3392    0.0744 C.ar    1  LIG1        0.1219
     27 C          -1.3775    4.0904    0.4053 C.3     1  LIG1        0.1267
     28 C          -0.0853   -3.2325   -0.9194 C.ar    1  LIG1        0.0179
     29 C          -2.2689    6.2197    0.4639 C.ar    1  LIG1        0.3180
     30 C          -3.0119    8.2772    1.1124 C.ar    1  LIG1        0.0483
     31 C          -0.8172    7.9917    0.3989 C.ar    1  LIG1        0.0483
     32 C          -1.7824    8.8468    0.8721 C.ar    1  LIG1        0.0543
     33 H           5.2322   -1.3777   -2.0646 H       1  LIG1        0.1493
     34 H           4.2132    1.0395   -1.8311 H       1  LIG1        0.1763
     35 H           5.6720   -3.5930   -0.6836 H       1  LIG1        0.0442
     36 H           6.1605   -2.4116    0.5271 H       1  LIG1        0.0442
     37 H           7.7044   -1.3374   -1.1586 H       1  LIG1        0.0275
     38 H           7.1814   -2.4906   -2.3776 H       1  LIG1        0.0275
     39 H           8.6500   -3.2041    0.2115 H       1  LIG1        0.0230
     40 H           9.3378   -3.1733   -1.4218 H       1  LIG1        0.0230
     41 H           8.1008   -4.3721   -1.0094 H       1  LIG1        0.0230
     42 H           1.8548   -0.9275   -2.4443 H       1  LIG1        0.0624
     43 H          -0.3419   -0.6707    1.2746 H       1  LIG1        0.0624
     44 H          -2.6104    2.3345    0.5660 H       1  LIG1        0.0731
     45 H          -1.7786    2.4505   -0.9646 H       1  LIG1        0.0731
     46 H           1.1061   -3.2233   -2.7169 H       1  LIG1        0.0629
     47 H          -1.1652   -2.9370    0.9240 H       1  LIG1        0.0629
     48 H           2.7442    4.3324    0.2660 H       1  LIG1        0.1049
     49 H          -0.9916    4.2048    1.4263 H       1  LIG1        0.0732
     50 H          -0.6339    4.4299   -0.3245 H       1  LIG1        0.0732
     51 H          -3.8452    8.8652    1.4875 H       1  LIG1        0.0843
     52 H           0.1879    8.3339    0.1699 H       1  LIG1        0.0843
@<TRIPOS>BOND
     1     1    28    1
     2     2    32    1
     3     3     5    2
     4     3     6    2
     5     3     8    1
     6     3     9    1
     7     4    19    1
     8     4    23    1
     9     7    27    1
    10     7    29    1
    11     8    14    1
    12     9    16    1
    13    10    16   ar
    14    10    26   ar
    15    11    19   ar
    16    11    26   ar
    17    12    29   ar
    18    12    30   ar
    19    13    29   ar
    20    13    31   ar
    21    14    17    1
    22    15    16   ar
    23    15    18    1
    24    15    19   ar
    25    17    20    1
    26    18    21   ar
    27    18    22   ar
    28    21    24   ar
    29    22    25   ar
    30    23    27    1
    31    24    28   ar
    32    25    28   ar
    33    30    32   ar
    34    31    32   ar
    35     8    33    1
    36     9    34    1
    37    14    35    1
    38    14    36    1
    39    17    37    1
    40    17    38    1
    41    20    39    1
    42    20    40    1
    43    20    41    1
    44    21    42    1
    45    22    43    1
    46    23    44    1
    47    23    45    1
    48    24    46    1
    49    25    47    1
    50    26    48    1
    51    27    49    1
    52    27    50    1
    53    30    51    1
    54    31    52    1
@<TRIPOS>MOLECULE
16004692
 52 54 0 0 0
SMALL
GASTEIGER

@<TRIPOS>ATOM
      1 BR         -0.2310   -5.1343   -1.1566 Br      1  LIG1       -0.0503
      2 BR         -9.7744    1.0042    1.9055 Br      1  LIG1       -0.0472
      3 S           4.5431   -0.0602   -0.1577 S.O2    1  LIG1        0.1104
      4 O          -0.9559    1.3927    0.3021 O.3     1  LIG1       -0.4724
      5 O           5.7310    0.7444   -0.0177 O.2     1  LIG1       -0.1381
      6 O           3.7853   -0.5471    0.9630 O.2     1  LIG1       -0.1381
      7 O          -4.2745    2.8474    0.5799 O.3     1  LIG1       -0.4590
      8 N           4.9686   -1.3637   -1.1286 N.3     1  LIG1       -0.1771
      9 N           3.5661    0.6973   -1.2905 N.pl3   1  LIG1       -0.1889
     10 N           2.7966    2.7162   -0.6461 N.ar    1  LIG1       -0.2186
     11 N           0.5983    3.1241    0.1380 N.ar    1  LIG1       -0.2008
     12 N          -6.5433    3.0469    0.3251 N.ar    1  LIG1       -0.2022
     13 N          -5.6559    1.3274    1.7244 N.ar    1  LIG1       -0.2022
     14 C           5.9121   -2.3334   -0.5267 C.3     1  LIG1        0.0185
     15 C           1.2396    0.8466   -0.4335 C.ar    1  LIG1        0.0848
     16 C           2.4697    1.4154   -0.7472 C.ar    1  LIG1        0.1532
     17 C           7.2563   -2.2290   -1.2468 C.3     1  LIG1       -0.0416
     18 C           0.9016   -0.5874   -0.6044 C.ar    1  LIG1       -0.0094
     19 C           0.3273    1.8078   -0.0039 C.ar    1  LIG1        0.2276
     20 C           8.2597   -3.2504   -0.7426 C.3     1  LIG1       -0.0641
     21 C           1.2580   -1.2979   -1.7657 C.ar    1  LIG1       -0.0527
     22 C           0.1982   -1.2972    0.3887 C.ar    1  LIG1       -0.0527
     23 C          -1.9236    2.4435    0.3178 C.3     1  LIG1        0.1252
     24 C           0.9350   -2.6507   -1.9267 C.ar    1  LIG1       -0.0472
     25 C          -0.1494   -2.6427    0.2249 C.ar    1  LIG1       -0.0472
     26 C           1.8329    3.5106   -0.1818 C.ar    1  LIG1        0.1219
     27 C          -3.2698    1.8450    0.7131 C.3     1  LIG1        0.1267
     28 C           0.2257   -3.3147   -0.9328 C.ar    1  LIG1        0.0179
     29 C          -5.5290    2.3683    0.8822 C.ar    1  LIG1        0.3180
     30 C          -7.7846    2.6183    0.6385 C.ar    1  LIG1        0.0483
     31 C          -6.9200    0.9494    2.0103 C.ar    1  LIG1        0.0483
     32 C          -8.0332    1.5644    1.4870 C.ar    1  LIG1        0.0543
     33 H           5.2857   -1.0320   -2.0322 H       1  LIG1        0.1493
     34 H           4.1614    1.3907   -1.7446 H       1  LIG1        0.1763
     35 H           5.4893   -3.3362   -0.6574 H       1  LIG1        0.0442
     36 H           6.0310   -2.1729    0.5499 H       1  LIG1        0.0442
     37 H           7.6693   -1.2210   -1.1189 H       1  LIG1        0.0275
     38 H           7.1127   -2.3741   -2.3244 H       1  LIG1        0.0275
     39 H           8.4662   -3.1072    0.3220 H       1  LIG1        0.0230
     40 H           9.2027   -3.1519   -1.2892 H       1  LIG1        0.0230
     41 H           7.8886   -4.2703   -0.8901 H       1  LIG1        0.0230
     42 H           1.8013   -0.8060   -2.5707 H       1  LIG1        0.0624
     43 H          -0.0900   -0.8043    1.3166 H       1  LIG1        0.0624
     44 H          -1.9986    2.9054   -0.6749 H       1  LIG1        0.0731
     45 H          -1.6628    3.2214    1.0473 H       1  LIG1        0.0731
     46 H           1.2422   -3.1701   -2.8309 H       1  LIG1        0.0629
     47 H          -0.7046   -3.1506    1.0081 H       1  LIG1        0.0629
     48 H           2.0697    4.5622   -0.0622 H       1  LIG1        0.1049
     49 H          -3.4940    0.9868    0.0658 H       1  LIG1        0.0732
     50 H          -3.1962    1.4887    1.7488 H       1  LIG1        0.0732
     51 H          -8.5912    3.1741    0.1685 H       1  LIG1        0.0843
     52 H          -7.0019    0.1113    2.6969 H       1  LIG1        0.0843
@<TRIPOS>BOND
     1     1    28    1
     2     2    32    1
     3     3     5    2
     4     3     6    2
     5     3     8    1
     6     3     9    1
     7     4    19    1
     8     4    23    1
     9     7    27    1
    10     7    29    1
    11     8    14    1
    12     9    16    1
    13    10    16   ar
    14    10    26   ar
    15    11    19   ar
    16    11    26   ar
    17    12    29   ar
    18    12    30   ar
    19    13    29   ar
    20    13    31   ar
    21    14    17    1
    22    15    16   ar
    23    15    18    1
    24    15    19   ar
    25    17    20    1
    26    18    21   ar
    27    18    22   ar
    28    21    24   ar
    29    22    25   ar
    30    23    27    1
    31    24    28   ar
    32    25    28   ar
    33    30    32   ar
    34    31    32   ar
    35     8    33    1
    36     9    34    1
    37    14    35    1
    38    14    36    1
    39    17    37    1
    40    17    38    1
    41    20    39    1
    42    20    40    1
    43    20    41    1
    44    21    42    1
    45    22    43    1
    46    23    44    1
    47    23    45    1
    48    24    46    1
    49    25    47    1
    50    26    48    1
    51    27    49    1
    52    27    50    1
    53    30    51    1
    54    31    52    1
@<TRIPOS>MOLECULE
16004692
 52 54 0 0 0
SMALL
GASTEIGER

@<TRIPOS>ATOM
      1 BR         -0.1868   -5.1868   -1.1582 Br      1  LIG1       -0.0503
      2 BR         -9.7148    1.0312    1.8943 Br      1  LIG1       -0.0472
      3 S           4.5705   -0.1378   -0.0892 S.O2    1  LIG1        0.1104
      4 O          -0.8952    1.3512    0.2544 O.3     1  LIG1       -0.4724
      5 O           5.8197    0.5841   -0.0084 O.2     1  LIG1       -0.1381
      6 O           3.7910   -0.4836    1.0695 O.2     1  LIG1       -0.1381
      7 O          -4.1998    2.8320    0.5738 O.3     1  LIG1       -0.4590
      8 N           4.9045   -1.5405   -0.9525 N.3     1  LIG1       -0.1771
      9 N           3.6481    0.6095   -1.2659 N.pl3   1  LIG1       -0.1889
     10 N           2.8732    2.6484   -0.6778 N.ar    1  LIG1       -0.2186
     11 N           0.6675    3.0759    0.0803 N.ar    1  LIG1       -0.2008
     12 N          -6.4666    3.0518    0.3202 N.ar    1  LIG1       -0.2022
     13 N          -5.5931    1.3176    1.7105 N.ar    1  LIG1       -0.2022
     14 C           5.7076   -2.5452   -0.2220 C.3     1  LIG1        0.0185
     15 C           1.3020    0.7908   -0.4643 C.ar    1  LIG1        0.0848
     16 C           2.5400    1.3485   -0.7694 C.ar    1  LIG1        0.1532
     17 C           5.5184   -3.8998   -0.9007 C.3     1  LIG1       -0.0416
     18 C           0.9600   -0.6424   -0.6268 C.ar    1  LIG1       -0.0094
     19 C           0.3908    1.7596   -0.0501 C.ar    1  LIG1        0.2276
     20 C           6.5402   -4.9157   -0.4176 C.3     1  LIG1       -0.0641
     21 C           1.3119   -1.3575   -1.7863 C.ar    1  LIG1       -0.0527
     22 C           0.2571   -1.3452    0.3717 C.ar    1  LIG1       -0.0527
     23 C          -1.8541    2.4102    0.2942 C.3     1  LIG1        0.1252
     24 C           0.9833   -2.7098   -1.9415 C.ar    1  LIG1       -0.0472
     25 C          -0.0943   -2.6899    0.2139 C.ar    1  LIG1       -0.0472
     26 C           1.9077    3.4524   -0.2331 C.ar    1  LIG1        0.1219
     27 C          -3.2033    1.8193    0.6916 C.3     1  LIG1        0.1267
     28 C           0.2754   -3.3676   -0.9426 C.ar    1  LIG1        0.0179
     29 C          -5.4578    2.3614    0.8731 C.ar    1  LIG1        0.3180
     30 C          -7.7120    2.6330    0.6328 C.ar    1  LIG1        0.0483
     31 C          -6.8610    0.9497    1.9960 C.ar    1  LIG1        0.0483
     32 C          -7.9688    1.5775    1.4763 C.ar    1  LIG1        0.0543
     33 H           5.3617   -1.2869   -1.8269 H       1  LIG1        0.1493
     34 H           4.2644    1.2837   -1.7203 H       1  LIG1        0.1763
     35 H           5.3965   -2.6175    0.8241 H       1  LIG1        0.0442
     36 H           6.7601   -2.2429   -0.2591 H       1  LIG1        0.0442
     37 H           5.6025   -3.8002   -1.9895 H       1  LIG1        0.0275
     38 H           4.5062   -4.2706   -0.6962 H       1  LIG1        0.0275
     39 H           7.5529   -4.6131   -0.7049 H       1  LIG1        0.0230
     40 H           6.3419   -5.8949   -0.8637 H       1  LIG1        0.0230
     41 H           6.5094   -5.0226    0.6715 H       1  LIG1        0.0230
     42 H           1.8548   -0.8694   -2.5928 H       1  LIG1        0.0624
     43 H          -0.0274   -0.8465    1.2978 H       1  LIG1        0.0624
     44 H          -1.9329    2.8870   -0.6912 H       1  LIG1        0.0731
     45 H          -1.5798    3.1744    1.0326 H       1  LIG1        0.0731
     46 H           1.2853   -3.2327   -2.8448 H       1  LIG1        0.0629
     47 H          -0.6491   -3.1937    1.0007 H       1  LIG1        0.0629
     48 H           2.1483    4.5040   -0.1223 H       1  LIG1        0.1049
     49 H          -3.4391    0.9691    0.0380 H       1  LIG1        0.0732
     50 H          -3.1277    1.4527    1.7240 H       1  LIG1        0.0732
     51 H          -8.5133    3.1979    0.1662 H       1  LIG1        0.0843
     52 H          -6.9498    0.1096    2.6786 H       1  LIG1        0.0843
@<TRIPOS>BOND
     1     1    28    1
     2     2    32    1
     3     3     5    2
     4     3     6    2
     5     3     8    1
     6     3     9    1
     7     4    19    1
     8     4    23    1
     9     7    27    1
    10     7    29    1
    11     8    14    1
    12     9    16    1
    13    10    16   ar
    14    10    26   ar
    15    11    19   ar
    16    11    26   ar
    17    12    29   ar
    18    12    30   ar
    19    13    29   ar
    20    13    31   ar
    21    14    17    1
    22    15    16   ar
    23    15    18    1
    24    15    19   ar
    25    17    20    1
    26    18    21   ar
    27    18    22   ar
    28    21    24   ar
    29    22    25   ar
    30    23    27    1
    31    24    28   ar
    32    25    28   ar
    33    30    32   ar
    34    31    32   ar
    35     8    33    1
    36     9    34    1
    37    14    35    1
    38    14    36    1
    39    17    37    1
    40    17    38    1
    41    20    39    1
    42    20    40    1
    43    20    41    1
    44    21    42    1
    45    22    43    1
    46    23    44    1
    47    23    45    1
    48    24    46    1
    49    25    47    1
    50    26    48    1
    51    27    49    1
    52    27    50    1
    53    30    51    1
    54    31    52    1
@<TRIPOS>MOLECULE
16004692
 52 54 0 0 0
SMALL
GASTEIGER

@<TRIPOS>ATOM
      1 BR         -0.4945   -5.0863   -1.3414 Br      1  LIG1       -0.0503
      2 BR         -9.0375    2.1582    3.9231 Br      1  LIG1       -0.0472
      3 S           4.8024   -0.0677    0.0312 S.O2    1  LIG1        0.1104
      4 O          -0.7955    1.3808    0.3441 O.3     1  LIG1       -0.4724
      5 O           4.2096    0.0061    1.3437 O.2     1  LIG1       -0.1381
      6 O           5.4631   -1.2651   -0.4266 O.2     1  LIG1       -0.1381
      7 O          -4.0133    2.9857    0.8566 O.3     1  LIG1       -0.4590
      8 N           5.8683    1.2139   -0.1300 N.3     1  LIG1       -0.1771
      9 N           3.6750    0.3309   -1.1356 N.pl3   1  LIG1       -0.1889
     10 N           3.0623    2.4673   -0.5105 N.ar    1  LIG1       -0.2186
     11 N           0.8516    3.0383    0.1644 N.ar    1  LIG1       -0.2008
     12 N          -6.2928    3.1785    1.0008 N.ar    1  LIG1       -0.2022
     13 N          -5.0794    2.0641    2.7287 N.ar    1  LIG1       -0.2022
     14 C           7.0076    1.1688    0.8102 C.3     1  LIG1        0.0185
     15 C           1.3498    0.7405   -0.4250 C.ar    1  LIG1        0.0848
     16 C           2.6402    1.1987   -0.6789 C.ar    1  LIG1        0.1532
     17 C           8.1755    1.9573    0.2292 C.3     1  LIG1       -0.0416
     18 C           0.9070   -0.6510   -0.6259 C.ar    1  LIG1       -0.0094
     19 C           0.4950    1.7482    0.0050 C.ar    1  LIG1        0.2276
     20 C           9.3445    2.0020    1.2016 C.3     1  LIG1       -0.0641
     21 C           1.4602   -1.7140    0.1083 C.ar    1  LIG1       -0.0527
     22 C          -0.0943   -0.9536   -1.5669 C.ar    1  LIG1       -0.0527
     23 C          -1.7141    2.4710    0.4268 C.3     1  LIG1        0.1252
     24 C           1.0548   -3.0340   -0.1124 C.ar    1  LIG1       -0.0472
     25 C          -0.5178   -2.2697   -1.7756 C.ar    1  LIG1       -0.0472
     26 C           2.1281    3.3304   -0.1009 C.ar    1  LIG1        0.1219
     27 C          -3.0518    1.9362    0.9327 C.3     1  LIG1        0.1267
     28 C           0.0659   -3.3053   -1.0526 C.ar    1  LIG1        0.0179
     29 C          -5.1672    2.6895    1.5424 C.ar    1  LIG1        0.3180
     30 C          -7.4221    2.9964    1.7189 C.ar    1  LIG1        0.0483
     31 C          -6.2378    1.9182    3.4072 C.ar    1  LIG1        0.0483
     32 C          -7.4511    2.3705    2.9435 C.ar    1  LIG1        0.0543
     33 H           5.3354    2.0845   -0.0576 H       1  LIG1        0.1493
     34 H           3.3306   -0.5324   -1.5517 H       1  LIG1        0.1763
     35 H           7.3277    0.1353    0.9832 H       1  LIG1        0.0442
     36 H           6.6931    1.6011    1.7665 H       1  LIG1        0.0442
     37 H           7.8627    2.9797   -0.0124 H       1  LIG1        0.0275
     38 H           8.5026    1.4945   -0.7099 H       1  LIG1        0.0275
     39 H           9.0647    2.5210    2.1242 H       1  LIG1        0.0230
     40 H          10.1911    2.5332    0.7564 H       1  LIG1        0.0230
     41 H           9.6772    0.9925    1.4648 H       1  LIG1        0.0230
     42 H           2.2067   -1.5299    0.8790 H       1  LIG1        0.0624
     43 H          -0.5647   -0.1585   -2.1440 H       1  LIG1        0.0624
     44 H          -1.8427    2.9285   -0.5622 H       1  LIG1        0.0731
     45 H          -1.3682    3.2423    1.1265 H       1  LIG1        0.0731
     46 H           1.5109   -3.8365    0.4625 H       1  LIG1        0.0629
     47 H          -1.3020   -2.4723   -2.5005 H       1  LIG1        0.0629
     48 H           2.4320    4.3638    0.0301 H       1  LIG1        0.1049
     49 H          -3.3786    1.0913    0.3131 H       1  LIG1        0.0732
     50 H          -2.8998    1.5654    1.9541 H       1  LIG1        0.0732
     51 H          -8.3235    3.3922    1.2601 H       1  LIG1        0.0843
     52 H          -6.1451    1.4174    4.3666 H       1  LIG1        0.0843
@<TRIPOS>BOND
     1     1    28    1
     2     2    32    1
     3     3     5    2
     4     3     6    2
     5     3     8    1
     6     3     9    1
     7     4    19    1
     8     4    23    1
     9     7    27    1
    10     7    29    1
    11     8    14    1
    12     9    16    1
    13    10    16   ar
    14    10    26   ar
    15    11    19   ar
    16    11    26   ar
    17    12    29   ar
    18    12    30   ar
    19    13    29   ar
    20    13    31   ar
    21    14    17    1
    22    15    16   ar
    23    15    18    1
    24    15    19   ar
    25    17    20    1
    26    18    21   ar
    27    18    22   ar
    28    21    24   ar
    29    22    25   ar
    30    23    27    1
    31    24    28   ar
    32    25    28   ar
    33    30    32   ar
    34    31    32   ar
    35     8    33    1
    36     9    34    1
    37    14    35    1
    38    14    36    1
    39    17    37    1
    40    17    38    1
    41    20    39    1
    42    20    40    1
    43    20    41    1
    44    21    42    1
    45    22    43    1
    46    23    44    1
    47    23    45    1
    48    24    46    1
    49    25    47    1
    50    26    48    1
    51    27    49    1
    52    27    50    1
    53    30    51    1
    54    31    52    1
@<TRIPOS>MOLECULE
16004692
 52 54 0 0 0
SMALL
GASTEIGER

@<TRIPOS>ATOM
      1 BR          0.3916   -5.2782   -0.6469 Br      1  LIG1       -0.0503
      2 BR         -0.9619   -2.9569   -3.2476 Br      1  LIG1       -0.0472
      3 S           5.2505   -0.1740   -0.0359 S.O2    1  LIG1        0.1104
      4 O          -0.8684    1.4171    1.0085 O.3     1  LIG1       -0.4724
      5 O           4.1182    0.5811    1.4401 O.2     1  LIG1       -0.1381
      6 O           4.9705   -1.0645   -0.2837 O.2     1  LIG1       -0.1381
      7 O          -4.1008    1.6963    0.0227 O.3     1  LIG1       -0.4590
      8 N           6.1603    0.4748   -0.3533 N.3     1  LIG1       -0.1771
      9 N           3.9229    0.5826   -1.1958 N.pl3   1  LIG1       -0.1889
     10 N           2.9704    2.8624   -0.7564 N.ar    1  LIG1       -0.2186
     11 N           0.6649    3.3719    0.4169 N.ar    1  LIG1       -0.2008
     12 N          -3.5127    0.4349   -1.6999 N.ar    1  LIG1       -0.2022
     13 N          -2.6932   -0.5055    0.8029 N.ar    1  LIG1       -0.2022
     14 C           6.7254    0.9493    0.8798 C.3     1  LIG1        0.0185
     15 C           1.5315    1.0595   -0.1085 C.ar    1  LIG1        0.0848
     16 C           2.5582    1.3204   -0.3186 C.ar    1  LIG1        0.1532
     17 C           7.8027    1.5887    0.4095 C.3     1  LIG1       -0.0416
     18 C           0.9940   -0.4850   -0.8374 C.ar    1  LIG1       -0.0094
     19 C           0.7332    1.8231   -0.0415 C.ar    1  LIG1        0.2276
     20 C           9.1671    0.6455   -0.6191 C.3     1  LIG1       -0.0641
     21 C           1.9883   -1.4555   -0.9471 C.ar    1  LIG1       -0.0527
     22 C           0.2841   -0.8626   -0.8659 C.ar    1  LIG1       -0.0527
     23 C          -1.5529    2.6712    0.6974 C.3     1  LIG1        0.1252
     24 C           1.7660   -2.8033   -0.0241 C.ar    1  LIG1       -0.0472
     25 C          -0.3846   -2.2105   -1.0372 C.ar    1  LIG1       -0.0472
     26 C           2.0097    3.5105   -0.4478 C.ar    1  LIG1        0.1219
     27 C          -3.0946    1.8362    1.2106 C.3     1  LIG1        0.1267
     28 C           0.3628   -3.2216   -0.6579 C.ar    1  LIG1        0.0179
     29 C          -2.8773    0.1978   -0.5938 C.ar    1  LIG1        0.3180
     30 C          -2.2395   -0.8048   -3.0057 C.ar    1  LIG1        0.0483
     31 C          -1.3633   -1.4425   -0.4369 C.ar    1  LIG1        0.0483
     32 C          -1.9962   -1.2056   -1.8024 C.ar    1  LIG1        0.0543
     33 H           5.7513    1.7907   -1.1567 H       1  LIG1        0.1493
     34 H           4.0048    0.5846   -2.1623 H       1  LIG1        0.1763
     35 H           7.1653   -0.1208    1.1939 H       1  LIG1        0.0442
     36 H           6.6524    1.4655    1.4218 H       1  LIG1        0.0442
     37 H           8.8038    1.7111    1.1540 H       1  LIG1        0.0275
     38 H           7.9389    2.4746   -0.1303 H       1  LIG1        0.0275
     39 H           9.2630   -0.1668   -0.1231 H       1  LIG1        0.0230
     40 H           9.9897    1.1518   -0.7633 H       1  LIG1        0.0230
     41 H           8.6919    0.6604   -1.4731 H       1  LIG1        0.0230
     42 H           2.6449   -1.5543   -0.1516 H       1  LIG1        0.0624
     43 H          -0.8014    0.4174   -1.3463 H       1  LIG1        0.0624
     44 H          -1.8003    3.1280    0.1456 H       1  LIG1        0.0731
     45 H          -1.5083    2.8749    1.7761 H       1  LIG1        0.0731
     46 H           2.4084   -3.5212   -0.2306 H       1  LIG1        0.0629
     47 H          -1.6006   -3.0043   -0.7374 H       1  LIG1        0.0629
     48 H           2.0550    4.5088   -0.1109 H       1  LIG1        0.1049
     49 H          -2.9313    1.0592    1.9469 H       1  LIG1        0.0732
     50 H          -3.7469    2.4312    1.3795 H       1  LIG1        0.0732
     51 H          -2.6406   -0.7136   -3.8520 H       1  LIG1        0.0843
     52 H          -1.1721   -1.5877    0.7271 H       1  LIG1        0.0843
@<TRIPOS>BOND
     1     1    28    1
     2     2    32    1
     3     3     5    2
     4     3     6    2
     5     3     8    1
     6     3     9    1
     7     4    19    1
     8     4    23    1
     9     7    27    1
    10     7    29    1
    11     8    14    1
    12     9    16    1
    13    10    16   ar
    14    10    26   ar
    15    11    19   ar
    16    11    26   ar
    17    12    29   ar
    18    12    30   ar
    19    13    29   ar
    20    13    31   ar
    21    14    17    1
    22    15    16   ar
    23    15    18    1
    24    15    19   ar
    25    17    20    1
    26    18    21   ar
    27    18    22   ar
    28    21    24   ar
    29    22    25   ar
    30    23    27    1
    31    24    28   ar
    32    25    28   ar
    33    30    32   ar
    34    31    32   ar
    35     8    33    1
    36     9    34    1
    37    14    35    1
    38    14    36    1
    39    17    37    1
    40    17    38    1
    41    20    39    1
    42    20    40    1
    43    20    41    1
    44    21    42    1
    45    22    43    1
    46    23    44    1
    47    23    45    1
    48    24    46    1
    49    25    47    1
    50    26    48    1
    51    27    49    1
    52    27    50    1
    53    30    51    1
    54    31    52    1
@<TRIPOS>MOLECULE
16004692
 52 54 0 0 0
SMALL
GASTEIGER

@<TRIPOS>ATOM
      1 BR          0.4276   -5.2728   -0.7566 Br      1  LIG1       -0.0503
      2 BR         -3.5172   -3.1818   -3.2483 Br      1  LIG1       -0.0472
      3 S           5.1345   -0.0362   -0.0452 S.O2    1  LIG1        0.1104
      4 O          -0.5079    1.2980    0.5760 O.3     1  LIG1       -0.4724
      5 O           4.7069    0.1417    1.3196 O.2     1  LIG1       -0.1381
      6 O           5.6068   -1.3073   -0.5396 O.2     1  LIG1       -0.1381
      7 O          -3.4643    1.8066   -0.0205 O.3     1  LIG1       -0.4590
      8 N           6.2650    1.1125   -0.4619 N.3     1  LIG1       -0.1771
      9 N           3.9164    0.4156   -1.0995 N.pl3   1  LIG1       -0.1889
     10 N           3.2731    2.5378   -0.4373 N.ar    1  LIG1       -0.2186
     11 N           1.0905    3.0129    0.4001 N.ar    1  LIG1       -0.2008
     12 N          -3.3863    0.7756   -2.0605 N.ar    1  LIG1       -0.2022
     13 N          -3.4084   -0.5382   -0.0676 N.ar    1  LIG1       -0.2022
     14 C           6.8027    1.9774    0.5916 C.3     1  LIG1        0.0185
     15 C           1.6606    0.7383   -0.1821 C.ar    1  LIG1        0.0848
     16 C           2.9041    1.2502   -0.5419 C.ar    1  LIG1        0.1532
     17 C           8.1749    2.4964    0.1605 C.3     1  LIG1       -0.0416
     18 C           1.3175   -0.6848   -0.2884 C.ar    1  LIG1       -0.0094
     19 C           0.7785    1.7074    0.2695 C.ar    1  LIG1        0.2276
     20 C           9.2137    1.3854    0.0575 C.3     1  LIG1       -0.0641
     21 C           1.8400   -1.6167    0.6254 C.ar    1  LIG1       -0.0527
     22 C           0.5040   -1.1548   -1.3309 C.ar    1  LIG1       -0.0527
     23 C          -1.3570    2.3451    1.0573 C.3     1  LIG1        0.1252
     24 C           1.5802   -2.9821    0.4875 C.ar    1  LIG1       -0.0472
     25 C           0.2426   -2.5207   -1.4702 C.ar    1  LIG1       -0.0472
     26 C           2.3338    3.3581    0.0451 C.ar    1  LIG1        0.1219
     27 C          -2.7741    1.7973    1.2324 C.3     1  LIG1        0.1267
     28 C           0.7826   -3.4275   -0.5615 C.ar    1  LIG1        0.0179
     29 C          -3.3695    0.6320   -0.7256 C.ar    1  LIG1        0.3180
     30 C          -3.4257   -0.3657   -2.7793 C.ar    1  LIG1        0.0483
     31 C          -3.4412   -1.6478   -0.8370 C.ar    1  LIG1        0.0483
     32 C          -3.4560   -1.6181   -2.2123 C.ar    1  LIG1        0.0543
     33 H           5.9949    1.5888   -1.3212 H       1  LIG1        0.1493
     34 H           3.5428   -0.4480   -1.4936 H       1  LIG1        0.1763
     35 H           6.9096    1.4336    1.5358 H       1  LIG1        0.0442
     36 H           6.1217    2.8207    0.7449 H       1  LIG1        0.0442
     37 H           8.5217    3.2335    0.8938 H       1  LIG1        0.0275
     38 H           8.1005    3.0097   -0.8055 H       1  LIG1        0.0275
     39 H           9.3094    0.8477    1.0063 H       1  LIG1        0.0230
     40 H          10.1927    1.8050   -0.1947 H       1  LIG1        0.0230
     41 H           8.9500    0.6623   -0.7210 H       1  LIG1        0.0230
     42 H           2.4638   -1.2867    1.4563 H       1  LIG1        0.0624
     43 H           0.0707   -0.4576   -2.0465 H       1  LIG1        0.0624
     44 H          -1.3804    3.1792    0.3450 H       1  LIG1        0.0731
     45 H          -0.9834    2.6839    2.0307 H       1  LIG1        0.0731
     46 H           2.0098   -3.6827    1.1995 H       1  LIG1        0.0629
     47 H          -0.3759   -2.8676   -2.2925 H       1  LIG1        0.0629
     48 H           2.6004    4.4046    0.1505 H       1  LIG1        0.1049
     49 H          -2.7750    0.8206    1.7293 H       1  LIG1        0.0732
     50 H          -3.3319    2.4832    1.8799 H       1  LIG1        0.0732
     51 H          -3.4394   -0.2256   -3.8563 H       1  LIG1        0.0843
     52 H          -3.4624   -2.5845   -0.2875 H       1  LIG1        0.0843
@<TRIPOS>BOND
     1     1    28    1
     2     2    32    1
     3     3     5    2
     4     3     6    2
     5     3     8    1
     6     3     9    1
     7     4    19    1
     8     4    23    1
     9     7    27    1
    10     7    29    1
    11     8    14    1
    12     9    16    1
    13    10    16   ar
    14    10    26   ar
    15    11    19   ar
    16    11    26   ar
    17    12    29   ar
    18    12    30   ar
    19    13    29   ar
    20    13    31   ar
    21    14    17    1
    22    15    16   ar
    23    15    18    1
    24    15    19   ar
    25    17    20    1
    26    18    21   ar
    27    18    22   ar
    28    21    24   ar
    29    22    25   ar
    30    23    27    1
    31    24    28   ar
    32    25    28   ar
    33    30    32   ar
    34    31    32   ar
    35     8    33    1
    36     9    34    1
    37    14    35    1
    38    14    36    1
    39    17    37    1
    40    17    38    1
    41    20    39    1
    42    20    40    1
    43    20    41    1
    44    21    42    1
    45    22    43    1
    46    23    44    1
    47    23    45    1
    48    24    46    1
    49    25    47    1
    50    26    48    1
    51    27    49    1
    52    27    50    1
    53    30    51    1
    54    31    52    1
@<TRIPOS>MOLECULE
16004692
 52 54 0 0 0
SMALL
GASTEIGER

@<TRIPOS>ATOM
      1 BR         -0.5685   -5.0826   -1.2729 Br      1  LIG1       -0.0503
      2 BR         -9.5243    0.8770   -0.4420 Br      1  LIG1       -0.0472
      3 S           4.7054   -0.0727   -0.3573 S.O2    1  LIG1        0.1104
      4 O          -0.8248    1.3430    0.7599 O.3     1  LIG1       -0.4724
      5 O           5.9152    0.5107   -0.8830 O.2     1  LIG1       -0.1381
      6 O           4.3555   -0.0521    1.0414 O.2     1  LIG1       -0.1381
      7 O          -3.6169    1.4230   -0.0274 O.3     1  LIG1       -0.4590
      8 N           4.6267   -1.6644   -0.8858 N.3     1  LIG1       -0.1771
      9 N           3.4487    0.4735   -1.3274 N.pl3   1  LIG1       -0.1889
     10 N           2.8682    2.5299   -0.5537 N.ar    1  LIG1       -0.2186
     11 N           0.7883    3.0173    0.4796 N.ar    1  LIG1       -0.2008
     12 N          -5.4461    0.2716   -0.7940 N.ar    1  LIG1       -0.2022
     13 N          -5.7437    2.1762    0.6137 N.ar    1  LIG1       -0.2022
     14 C           5.9105   -2.3723   -1.0246 C.3     1  LIG1        0.0185
     15 C           1.2504    0.7361   -0.2185 C.ar    1  LIG1        0.0848
     16 C           2.4719    1.2482   -0.6407 C.ar    1  LIG1        0.1532
     17 C           5.6397   -3.8392   -1.3549 C.3     1  LIG1       -0.0416
     18 C           0.8052   -0.6537   -0.4367 C.ar    1  LIG1       -0.0094
     19 C           0.4379    1.7196    0.3329 C.ar    1  LIG1        0.2276
     20 C           5.1580   -4.6295   -0.1475 C.3     1  LIG1       -0.0641
     21 C           1.4902   -1.7471    0.1168 C.ar    1  LIG1       -0.0527
     22 C          -0.3373   -0.9299   -1.2122 C.ar    1  LIG1       -0.0527
     23 C          -1.6999    2.4531    0.9867 C.3     1  LIG1        0.1252
     24 C           1.0917   -3.0638   -0.1398 C.ar    1  LIG1       -0.0472
     25 C          -0.7574   -2.2434   -1.4501 C.ar    1  LIG1       -0.0472
     26 C           1.9980    3.3549    0.0287 C.ar    1  LIG1        0.1219
     27 C          -3.1200    1.9391    1.2117 C.3     1  LIG1        0.1267
     28 C          -0.0295   -3.3055   -0.9252 C.ar    1  LIG1        0.0179
     29 C          -4.9837    1.2714   -0.0281 C.ar    1  LIG1        0.3180
     30 C          -6.7898    0.1706   -0.8877 C.ar    1  LIG1        0.0483
     31 C          -7.0794    2.0336    0.4754 C.ar    1  LIG1        0.0483
     32 C          -7.6624    1.0365   -0.2704 C.ar    1  LIG1        0.0543
     33 H           4.0527   -1.7052   -1.7265 H       1  LIG1        0.1493
     34 H           3.9005    1.1041   -1.9922 H       1  LIG1        0.1763
     35 H           6.5060   -2.2848   -0.1104 H       1  LIG1        0.0442
     36 H           6.4652   -1.9271   -1.8580 H       1  LIG1        0.0442
     37 H           6.5633   -4.2980   -1.7261 H       1  LIG1        0.0275
     38 H           4.8963   -3.9171   -2.1579 H       1  LIG1        0.0275
     39 H           5.9246   -4.6489    0.6337 H       1  LIG1        0.0230
     40 H           4.9436   -5.6634   -0.4359 H       1  LIG1        0.0230
     41 H           4.2460   -4.2000    0.2768 H       1  LIG1        0.0230
     42 H           2.3485   -1.5917    0.7665 H       1  LIG1        0.0624
     43 H          -0.9257   -0.1157   -1.6343 H       1  LIG1        0.0624
     44 H          -1.7020    3.1187    0.1136 H       1  LIG1        0.0731
     45 H          -1.3713    2.9963    1.8804 H       1  LIG1        0.0731
     46 H           1.6623   -3.8849    0.2859 H       1  LIG1        0.0629
     47 H          -1.6518   -2.4191   -2.0421 H       1  LIG1        0.0629
     48 H           2.2934    4.3934    0.1336 H       1  LIG1        0.1049
     49 H          -3.1224    1.1311    1.9526 H       1  LIG1        0.0732
     50 H          -3.7154    2.7822    1.5788 H       1  LIG1        0.0732
     51 H          -7.1441   -0.6528   -1.5014 H       1  LIG1        0.0843
     52 H          -7.6746    2.7775    0.9969 H       1  LIG1        0.0843
@<TRIPOS>BOND
     1     1    28    1
     2     2    32    1
     3     3     5    2
     4     3     6    2
     5     3     8    1
     6     3     9    1
     7     4    19    1
     8     4    23    1
     9     7    27    1
    10     7    29    1
    11     8    14    1
    12     9    16    1
    13    10    16   ar
    14    10    26   ar
    15    11    19   ar
    16    11    26   ar
    17    12    29   ar
    18    12    30   ar
    19    13    29   ar
    20    13    31   ar
    21    14    17    1
    22    15    16   ar
    23    15    18    1
    24    15    19   ar
    25    17    20    1
    26    18    21   ar
    27    18    22   ar
    28    21    24   ar
    29    22    25   ar
    30    23    27    1
    31    24    28   ar
    32    25    28   ar
    33    30    32   ar
    34    31    32   ar
    35     8    33    1
    36     9    34    1
    37    14    35    1
    38    14    36    1
    39    17    37    1
    40    17    38    1
    41    20    39    1
    42    20    40    1
    43    20    41    1
    44    21    42    1
    45    22    43    1
    46    23    44    1
    47    23    45    1
    48    24    46    1
    49    25    47    1
    50    26    48    1
    51    27    49    1
    52    27    50    1
    53    30    51    1
    54    31    52    1
@<TRIPOS>MOLECULE
16004692
 52 54 0 0 0
SMALL
GASTEIGER

@<TRIPOS>ATOM
      1 BR         -0.5691   -5.0586   -1.1179 Br      1  LIG1       -0.0503
      2 BR         -1.1619    3.6189    8.9909 Br      1  LIG1       -0.0472
      3 S           4.6769   -0.1236   -0.2996 S.O2    1  LIG1        0.1104
      4 O          -0.7359    1.3836    0.6562 O.3     1  LIG1       -0.4724
      5 O           5.9435    0.4267   -0.7217 O.2     1  LIG1       -0.1381
      6 O           4.1908   -0.0427    1.0529 O.2     1  LIG1       -0.1381
      7 O          -1.7414    1.9448    3.3167 O.3     1  LIG1       -0.4590
      8 N           4.6163   -1.7283   -0.7682 N.3     1  LIG1       -0.1771
      9 N           3.5311    0.4347   -1.3987 N.pl3   1  LIG1       -0.1889
     10 N           2.9289    2.5407   -0.7631 N.ar    1  LIG1       -0.2186
     11 N           0.8505    3.0672    0.2701 N.ar    1  LIG1       -0.2008
     12 N          -0.9286    1.5343    5.4263 N.ar    1  LIG1       -0.2022
     13 N          -2.1157    3.5579    4.9670 N.ar    1  LIG1       -0.2022
     14 C           5.8767   -2.3843   -1.1282 C.3     1  LIG1        0.0185
     15 C           1.3159    0.7692   -0.3484 C.ar    1  LIG1        0.0848
     16 C           2.5328    1.2579   -0.8040 C.ar    1  LIG1        0.1532
     17 C           5.6361   -3.8724   -1.3756 C.3     1  LIG1       -0.0416
     18 C           0.8704   -0.6218   -0.5133 C.ar    1  LIG1       -0.0094
     19 C           0.5066    1.7646    0.1842 C.ar    1  LIG1        0.2276
     20 C           5.2010   -4.6222   -0.1242 C.3     1  LIG1       -0.0641
     21 C           1.3631   -1.6570    0.2960 C.ar    1  LIG1       -0.0527
     22 C          -0.0878   -0.9461   -1.4912 C.ar    1  LIG1       -0.0527
     23 C          -1.6345    2.4531    0.9688 C.3     1  LIG1        0.1252
     24 C           0.9438   -2.9786    0.1112 C.ar    1  LIG1       -0.0472
     25 C          -0.5227   -2.2629   -1.6681 C.ar    1  LIG1       -0.0472
     26 C           2.0592    3.3856   -0.2038 C.ar    1  LIG1        0.1219
     27 C          -1.4363    2.9886    2.3871 C.3     1  LIG1        0.1267
     28 C           0.0029   -3.2748   -0.8706 C.ar    1  LIG1        0.0179
     29 C          -1.5670    2.3830    4.6079 C.ar    1  LIG1        0.3180
     30 C          -0.8128    1.9295    6.7116 C.ar    1  LIG1        0.0483
     31 C          -1.9812    3.8942    6.2677 C.ar    1  LIG1        0.0483
     32 C          -1.3291    3.1109    7.1920 C.ar    1  LIG1        0.0543
     33 H           3.8090   -1.9158   -1.3606 H       1  LIG1        0.1493
     34 H           4.0584    1.0232   -2.0459 H       1  LIG1        0.1763
     35 H           6.6116   -2.2546   -0.3261 H       1  LIG1        0.0442
     36 H           6.2699   -1.9350   -2.0464 H       1  LIG1        0.0442
     37 H           6.5641   -4.3219   -1.7482 H       1  LIG1        0.0275
     38 H           4.8776   -4.0056   -2.1562 H       1  LIG1        0.0275
     39 H           5.9460   -4.5237    0.6717 H       1  LIG1        0.0230
     40 H           5.0825   -5.6875   -0.3472 H       1  LIG1        0.0230
     41 H           4.2427   -4.2512    0.2522 H       1  LIG1        0.0230
     42 H           2.0774   -1.4453    1.0902 H       1  LIG1        0.0624
     43 H          -0.5147   -0.1655   -2.1189 H       1  LIG1        0.0624
     44 H          -2.6410    2.0247    0.8934 H       1  LIG1        0.0731
     45 H          -1.5832    3.2548    0.2217 H       1  LIG1        0.0731
     46 H           1.3515   -3.7606    0.7467 H       1  LIG1        0.0629
     47 H          -1.2721   -2.4833   -2.4237 H       1  LIG1        0.0629
     48 H           2.3583    4.4258   -0.1334 H       1  LIG1        0.1049
     49 H          -0.4035    3.3204    2.5417 H       1  LIG1        0.0732
     50 H          -2.1189    3.8364    2.5223 H       1  LIG1        0.0732
     51 H          -0.2782    1.2371    7.3551 H       1  LIG1        0.0843
     52 H          -2.4348    4.8418    6.5437 H       1  LIG1        0.0843
@<TRIPOS>BOND
     1     1    28    1
     2     2    32    1
     3     3     5    2
     4     3     6    2
     5     3     8    1
     6     3     9    1
     7     4    19    1
     8     4    23    1
     9     7    27    1
    10     7    29    1
    11     8    14    1
    12     9    16    1
    13    10    16   ar
    14    10    26   ar
    15    11    19   ar
    16    11    26   ar
    17    12    29   ar
    18    12    30   ar
    19    13    29   ar
    20    13    31   ar
    21    14    17    1
    22    15    16   ar
    23    15    18    1
    24    15    19   ar
    25    17    20    1
    26    18    21   ar
    27    18    22   ar
    28    21    24   ar
    29    22    25   ar
    30    23    27    1
    31    24    28   ar
    32    25    28   ar
    33    30    32   ar
    34    31    32   ar
    35     8    33    1
    36     9    34    1
    37    14    35    1
    38    14    36    1
    39    17    37    1
    40    17    38    1
    41    20    39    1
    42    20    40    1
    43    20    41    1
    44    21    42    1
    45    22    43    1
    46    23    44    1
    47    23    45    1
    48    24    46    1
    49    25    47    1
    50    26    48    1
    51    27    49    1
    52    27    50    1
    53    30    51    1
    54    31    52    1
@<TRIPOS>MOLECULE
16004692
 52 54 0 0 0
SMALL
GASTEIGER

@<TRIPOS>ATOM
      1 BR         -0.9147   -5.0211   -1.6700 Br      1  LIG1       -0.0503
      2 BR         -1.2106    3.4834    8.7623 Br      1  LIG1       -0.0472
      3 S           4.7056    0.3352    0.3264 S.O2    1  LIG1        0.1104
      4 O          -0.9050    1.4573    0.2380 O.3     1  LIG1       -0.4724
      5 O           5.2208   -1.0090    0.4235 O.2     1  LIG1       -0.1381
      6 O           5.5892    1.4565    0.1057 O.2     1  LIG1       -0.1381
      7 O          -1.5245    1.9244    3.0312 O.3     1  LIG1       -0.4590
      8 N           3.8311    0.6708    1.7033 N.3     1  LIG1       -0.1771
      9 N           3.5865    0.3324   -0.9321 N.pl3   1  LIG1       -0.1889
     10 N           2.8836    2.5091   -0.8055 N.ar    1  LIG1       -0.2186
     11 N           0.6891    3.1083   -0.1799 N.ar    1  LIG1       -0.2008
     12 N          -0.7161    1.5310    5.1481 N.ar    1  LIG1       -0.2022
     13 N          -2.0431    3.4690    4.7114 N.ar    1  LIG1       -0.2022
     14 C           2.9012   -0.3092    2.2679 C.3     1  LIG1        0.0185
     15 C           1.1844    0.7653   -0.6527 C.ar    1  LIG1        0.0848
     16 C           2.4906    1.2242   -0.8142 C.ar    1  LIG1        0.1532
     17 C           2.3695    0.1810    3.6131 C.3     1  LIG1       -0.0416
     18 C           0.7115   -0.6378   -0.8956 C.ar    1  LIG1       -0.0094
     19 C           0.3452    1.8022   -0.2397 C.ar    1  LIG1        0.2276
     20 C           3.3248   -0.1099    4.7576 C.3     1  LIG1       -0.0641
     21 C           1.4990   -1.7842   -0.6667 C.ar    1  LIG1       -0.0527
     22 C          -0.5796   -0.8813   -1.4152 C.ar    1  LIG1       -0.0527
     23 C          -1.7270    2.5326    0.7039 C.3     1  LIG1        0.1252
     24 C           1.0246   -3.0833   -0.8996 C.ar    1  LIG1       -0.0472
     25 C          -1.0697   -2.1758   -1.6397 C.ar    1  LIG1       -0.0472
     26 C           1.9430    3.4025   -0.5154 C.ar    1  LIG1        0.1219
     27 C          -1.3612    3.0089    2.1136 C.3     1  LIG1        0.1267
     28 C          -0.2636   -3.2734   -1.3760 C.ar    1  LIG1        0.0179
     29 C          -1.4004    2.3495    4.3350 C.ar    1  LIG1        0.3180
     30 C          -0.6690    1.8949    6.4481 C.ar    1  LIG1        0.0483
     31 C          -1.9685    3.7791    6.0237 C.ar    1  LIG1        0.0483
     32 C          -1.2864    3.0193    6.9456 C.ar    1  LIG1        0.0543
     33 H           3.5621    1.6524    1.7481 H       1  LIG1        0.1493
     34 H           4.1266    0.5665   -1.7651 H       1  LIG1        0.1763
     35 H           3.3757   -1.2898    2.3679 H       1  LIG1        0.0442
     36 H           2.0392   -0.4063    1.6138 H       1  LIG1        0.0442
     37 H           1.4212   -0.3282    3.8226 H       1  LIG1        0.0275
     38 H           2.1528    1.2556    3.5764 H       1  LIG1        0.0275
     39 H           3.4765   -1.1889    4.8692 H       1  LIG1        0.0230
     40 H           2.9104    0.2691    5.6970 H       1  LIG1        0.0230
     41 H           4.2985    0.3617    4.5958 H       1  LIG1        0.0230
     42 H           2.5135   -1.7148   -0.2858 H       1  LIG1        0.0624
     43 H          -1.2442   -0.0538   -1.6600 H       1  LIG1        0.0624
     44 H          -2.7463    2.1302    0.7299 H       1  LIG1        0.0731
     45 H          -1.7397    3.3622   -0.0135 H       1  LIG1        0.0731
     46 H           1.6757   -3.9310   -0.6995 H       1  LIG1        0.0629
     47 H          -2.0794   -2.3069   -2.0193 H       1  LIG1        0.0629
     48 H           2.2296    4.4484   -0.5189 H       1  LIG1        0.1049
     49 H          -0.3224    3.3521    2.1631 H       1  LIG1        0.0732
     50 H          -2.0285    3.8447    2.3551 H       1  LIG1        0.0732
     51 H          -0.1053    1.2238    7.0897 H       1  LIG1        0.0843
     52 H          -2.4978    4.6832    6.3112 H       1  LIG1        0.0843
@<TRIPOS>BOND
     1     1    28    1
     2     2    32    1
     3     3     5    2
     4     3     6    2
     5     3     8    1
     6     3     9    1
     7     4    19    1
     8     4    23    1
     9     7    27    1
    10     7    29    1
    11     8    14    1
    12     9    16    1
    13    10    16   ar
    14    10    26   ar
    15    11    19   ar
    16    11    26   ar
    17    12    29   ar
    18    12    30   ar
    19    13    29   ar
    20    13    31   ar
    21    14    17    1
    22    15    16   ar
    23    15    18    1
    24    15    19   ar
    25    17    20    1
    26    18    21   ar
    27    18    22   ar
    28    21    24   ar
    29    22    25   ar
    30    23    27    1
    31    24    28   ar
    32    25    28   ar
    33    30    32   ar
    34    31    32   ar
    35     8    33    1
    36     9    34    1
    37    14    35    1
    38    14    36    1
    39    17    37    1
    40    17    38    1
    41    20    39    1
    42    20    40    1
    43    20    41    1
    44    21    42    1
    45    22    43    1
    46    23    44    1
    47    23    45    1
    48    24    46    1
    49    25    47    1
    50    26    48    1
    51    27    49    1
    52    27    50    1
    53    30    51    1
    54    31    52    1
@<TRIPOS>MOLECULE
16004692
 52 54 0 0 0
SMALL
GASTEIGER

@<TRIPOS>ATOM
      1 BR         -0.4610   -5.3066   -0.8701 Br      1  LIG1       -0.0503
      2 BR          0.1850    8.4588    5.5098 Br      1  LIG1       -0.0472
      3 S           4.6505   -0.1740    0.2459 S.O2    1  LIG1        0.1104
      4 O          -0.8684    1.4171    0.4085 O.3     1  LIG1       -0.4724
      5 O           5.1340   -1.0105   -0.2123 O.2     1  LIG1       -0.1381
      6 O           5.9604    1.0500   -0.4948 O.2     1  LIG1       -0.1381
      7 O          -2.6807    4.0818    3.2587 O.3     1  LIG1       -0.4590
      8 N           3.8820    0.8544    1.4464 N.3     1  LIG1       -0.1771
      9 N           4.2211    0.5826   -1.1958 N.pl3   1  LIG1       -0.1889
     10 N           2.3011    2.7235   -0.3057 N.ar    1  LIG1       -0.2186
     11 N           0.6649    2.5339    0.2641 N.ar    1  LIG1       -0.2008
     12 N          -2.2881    5.6019    3.7117 N.ar    1  LIG1       -0.2022
     13 N          -0.2763    5.4029    3.0001 N.ar    1  LIG1       -0.2022
     14 C           3.0394   -0.0418    2.1829 C.3     1  LIG1        0.0185
     15 C           1.3213    0.9132   -0.9931 C.ar    1  LIG1        0.0848
     16 C           2.5679    1.4252   -1.2892 C.ar    1  LIG1        0.1532
     17 C           2.1867   -1.7654    2.0189 C.3     1  LIG1       -0.0416
     18 C           0.9940   -0.4850   -0.5706 C.ar    1  LIG1       -0.0094
     19 C          -0.1997    1.8231   -0.5149 C.ar    1  LIG1        0.2276
     20 C           2.6153   -2.0586    0.6551 C.3     1  LIG1       -0.0641
     21 C           1.3861   -1.4514   -0.4369 C.ar    1  LIG1       -0.0527
     22 C          -0.3159   -0.8626   -1.4659 C.ar    1  LIG1       -0.0527
     23 C          -1.7560    2.4175    0.8925 C.3     1  LIG1        0.1252
     24 C           1.0728   -2.8033   -0.6175 C.ar    1  LIG1       -0.0472
     25 C          -0.6315   -2.2105   -1.0372 C.ar    1  LIG1       -0.0472
     26 C           1.9163    3.5105   -0.6612 C.ar    1  LIG1        0.1219
     27 C          -1.1850    3.0117    2.1657 C.3     1  LIG1        0.1267
     28 C           0.3628   -3.1808   -0.9130 C.ar    1  LIG1        0.0179
     29 C          -1.5263    5.0449    3.3511 C.ar    1  LIG1        0.3180
     30 C          -1.7104    6.6251    4.9748 C.ar    1  LIG1        0.0483
     31 C           0.2396    6.4322    4.3033 C.ar    1  LIG1        0.0483
     32 C          -0.4375    7.0881    4.7113 C.ar    1  LIG1        0.0543
     33 H           3.9997    1.2599    1.5713 H       1  LIG1        0.1493
     34 H           3.7480    0.4444   -2.1623 H       1  LIG1        0.1763
     35 H           1.8970    0.4922    1.4309 H       1  LIG1        0.0442
     36 H           2.1132    0.2609    2.5559 H       1  LIG1        0.0442
     37 H           1.1403   -1.7211    1.5432 H       1  LIG1        0.0275
     38 H           2.7699   -2.0444    2.1576 H       1  LIG1        0.0275
     39 H           2.6513   -2.1722   -1.3185 H       1  LIG1        0.0230
     40 H           2.4410   -3.1132    0.0068 H       1  LIG1        0.0230
     41 H           3.6569   -1.8621   -0.0911 H       1  LIG1        0.0230
     42 H           2.9575   -0.5762   -0.2276 H       1  LIG1        0.0624
     43 H          -1.0516   -0.1448   -0.9577 H       1  LIG1        0.0624
     44 H          -2.7110    1.9807    1.3289 H       1  LIG1        0.0731
     45 H          -1.8712    3.1850    0.1559 H       1  LIG1        0.0731
     46 H           2.4084   -4.1212   -1.1257 H       1  LIG1        0.0629
     47 H          -1.6006   -2.4898   -1.2558 H       1  LIG1        0.0629
     48 H           2.1450    4.5088    0.0660 H       1  LIG1        0.1049
     49 H          -1.0635    2.2411    2.8980 H       1  LIG1        0.0732
     50 H          -0.2333    3.4561    2.5615 H       1  LIG1        0.0732
     51 H          -2.2514    7.0880    5.7218 H       1  LIG1        0.0843
     52 H           1.1953    6.7471    3.4744 H       1  LIG1        0.0843
@<TRIPOS>BOND
     1     1    28    1
     2     2    32    1
     3     3     5    2
     4     3     6    2
     5     3     8    1
     6     3     9    1
     7     4    19    1
     8     4    23    1
     9     7    27    1
    10     7    29    1
    11     8    14    1
    12     9    16    1
    13    10    16   ar
    14    10    26   ar
    15    11    19   ar
    16    11    26   ar
    17    12    29   ar
    18    12    30   ar
    19    13    29   ar
    20    13    31   ar
    21    14    17    1
    22    15    16   ar
    23    15    18    1
    24    15    19   ar
    25    17    20    1
    26    18    21   ar
    27    18    22   ar
    28    21    24   ar
    29    22    25   ar
    30    23    27    1
    31    24    28   ar
    32    25    28   ar
    33    30    32   ar
    34    31    32   ar
    35     8    33    1
    36     9    34    1
    37    14    35    1
    38    14    36    1
    39    17    37    1
    40    17    38    1
    41    20    39    1
    42    20    40    1
    43    20    41    1
    44    21    42    1
    45    22    43    1
    46    23    44    1
    47    23    45    1
    48    24    46    1
    49    25    47    1
    50    26    48    1
    51    27    49    1
    52    27    50    1
    53    30    51    1
    54    31    52    1
@<TRIPOS>MOLECULE
16004692
 52 54 0 0 0
SMALL
GASTEIGER

@<TRIPOS>ATOM
      1 BR         -0.4640   -5.3057   -0.8713 Br      1  LIG1       -0.0503
      2 BR         -6.9851    4.6618   -0.3498 Br      1  LIG1       -0.0472
      3 S           4.6505   -0.1740    0.2687 S.O2    1  LIG1        0.1104
      4 O          -0.8684    0.8171    0.4085 O.3     1  LIG1       -0.4724
      5 O           5.1340   -1.0105   -0.2123 O.2     1  LIG1       -0.1381
      6 O           5.9604    1.0500   -0.5075 O.2     1  LIG1       -0.1381
      7 O          -2.2512    4.0008    2.6587 O.3     1  LIG1       -0.4590
      8 N           3.8820    0.8544    1.4464 N.3     1  LIG1       -0.1771
      9 N           4.2211    0.5826   -1.1958 N.pl3   1  LIG1       -0.1889
     10 N           2.3011    2.7235   -0.2800 N.ar    1  LIG1       -0.2186
     11 N           0.6649    2.5339    0.2641 N.ar    1  LIG1       -0.2008
     12 N          -3.1424    4.5957    0.6064 N.ar    1  LIG1       -0.2022
     13 N          -4.3053    4.8757    2.6215 N.ar    1  LIG1       -0.2022
     14 C           3.0394   -0.0418    2.1829 C.3     1  LIG1        0.0185
     15 C           1.3213    0.9132   -0.9931 C.ar    1  LIG1        0.0848
     16 C           2.5679    1.4252   -1.2892 C.ar    1  LIG1        0.1532
     17 C           2.1867   -1.7657    2.0189 C.3     1  LIG1       -0.0416
     18 C           0.9940   -0.4850   -0.5706 C.ar    1  LIG1       -0.0094
     19 C          -0.1997    1.8231   -0.5149 C.ar    1  LIG1        0.2276
     20 C           2.6153   -2.0586    0.6551 C.3     1  LIG1       -0.0641
     21 C           1.3861   -1.4514   -0.4369 C.ar    1  LIG1       -0.0527
     22 C          -0.3159   -0.8626   -1.4659 C.ar    1  LIG1       -0.0527
     23 C          -1.7560    2.4175    0.8925 C.3     1  LIG1        0.1252
     24 C           1.0728   -2.8033   -0.6175 C.ar    1  LIG1       -0.0472
     25 C          -0.6315   -2.2105   -1.0372 C.ar    1  LIG1       -0.0472
     26 C           1.9163    3.5105   -0.6612 C.ar    1  LIG1        0.1219
     27 C          -1.1850    3.0117    2.1657 C.3     1  LIG1        0.1267
     28 C           0.3628   -3.1808   -0.9130 C.ar    1  LIG1        0.0179
     29 C          -3.2223    4.2163    1.9324 C.ar    1  LIG1        0.3180
     30 C          -4.2848    4.2151   -0.0772 C.ar    1  LIG1        0.0483
     31 C          -5.4119    4.8239    1.8760 C.ar    1  LIG1        0.0483
     32 C          -5.4610    4.0478    0.5100 C.ar    1  LIG1        0.0543
     33 H           3.9997    1.2599    1.5713 H       1  LIG1        0.1493
     34 H           3.7480    0.4444   -2.1623 H       1  LIG1        0.1763
     35 H           1.8970    0.4922    1.4309 H       1  LIG1        0.0442
     36 H           2.1132    0.2609    2.5559 H       1  LIG1        0.0442
     37 H           1.1403   -1.7211    1.5432 H       1  LIG1        0.0275
     38 H           2.7699   -2.0444    2.1576 H       1  LIG1        0.0275
     39 H           2.6513   -2.1722   -1.3185 H       1  LIG1        0.0230
     40 H           2.4410   -3.1132    0.0068 H       1  LIG1        0.0230
     41 H           3.6569   -1.8621   -0.0911 H       1  LIG1        0.0230
     42 H           2.9575   -0.5762   -0.2276 H       1  LIG1        0.0624
     43 H          -1.0516   -0.1448   -0.9577 H       1  LIG1        0.0624
     44 H          -2.7110    1.9807    1.0115 H       1  LIG1        0.0731
     45 H          -1.8712    2.5850    0.1559 H       1  LIG1        0.0731
     46 H           2.4084   -4.1212   -1.1257 H       1  LIG1        0.0629
     47 H          -1.6006   -2.4898   -1.2558 H       1  LIG1        0.0629
     48 H           2.1450    4.5088    0.0660 H       1  LIG1        0.1049
     49 H          -1.0635    2.2411    2.8980 H       1  LIG1        0.0732
     50 H          -0.2386    3.4561    1.9615 H       1  LIG1        0.0732
     51 H          -4.2784    4.0608   -1.0976 H       1  LIG1        0.0843
     52 H          -6.2708    5.1370    2.3548 H       1  LIG1        0.0843
@<TRIPOS>BOND
     1     1    28    1
     2     2    32    1
     3     3     5    2
     4     3     6    2
     5     3     8    1
     6     3     9    1
     7     4    19    1
     8     4    23    1
     9     7    27    1
    10     7    29    1
    11     8    14    1
    12     9    16    1
    13    10    16   ar
    14    10    26   ar
    15    11    19   ar
    16    11    26   ar
    17    12    29   ar
    18    12    30   ar
    19    13    29   ar
    20    13    31   ar
    21    14    17    1
    22    15    16   ar
    23    15    18    1
    24    15    19   ar
    25    17    20    1
    26    18    21   ar
    27    18    22   ar
    28    21    24   ar
    29    22    25   ar
    30    23    27    1
    31    24    28   ar
    32    25    28   ar
    33    30    32   ar
    34    31    32   ar
    35     8    33    1
    36     9    34    1
    37    14    35    1
    38    14    36    1
    39    17    37    1
    40    17    38    1
    41    20    39    1
    42    20    40    1
    43    20    41    1
    44    21    42    1
    45    22    43    1
    46    23    44    1
    47    23    45    1
    48    24    46    1
    49    25    47    1
    50    26    48    1
    51    27    49    1
    52    27    50    1
    53    30    51    1
    54    31    52    1
@<TRIPOS>MOLECULE
16004692
 52 54 0 0 0
SMALL
GASTEIGER

@<TRIPOS>ATOM
      1 BR         -0.4225   -5.0609   -1.4257 Br      1  LIG1       -0.0503
      2 BR         -5.0910    0.6739   -8.1305 Br      1  LIG1       -0.0472
      3 S           4.8005    0.2666    0.0831 S.O2    1  LIG1        0.1104
      4 O          -1.1586    1.8607    0.0563 O.3     1  LIG1       -0.4724
      5 O           5.4448   -0.9904   -0.2036 O.2     1  LIG1       -0.1381
      6 O           5.5140    1.5023   -0.1296 O.2     1  LIG1       -0.1381
      7 O          -2.6875    0.0767   -2.7441 O.3     1  LIG1       -0.4590
      8 N           4.2955    0.2807    1.6636 N.3     1  LIG1       -0.1771
      9 N           3.3915    0.2916   -0.8179 N.pl3   1  LIG1       -0.1889
     10 N           2.8300    2.5158   -0.4581 N.ar    1  LIG1       -0.2186
     11 N           0.6025    3.1951   -0.0511 N.ar    1  LIG1       -0.2008
     12 N          -3.8645    1.4087   -4.2509 N.ar    1  LIG1       -0.2022
     13 N          -2.9527   -0.7108   -4.8744 N.ar    1  LIG1       -0.2022
     14 C           3.2663   -0.6084    2.2049 C.3     1  LIG1        0.0185
     15 C           1.0376    0.8693   -0.4862 C.ar    1  LIG1        0.0848
     16 C           2.3864    1.2589   -0.5287 C.ar    1  LIG1        0.1532
     17 C           3.6615   -2.0663    2.3780 C.3     1  LIG1       -0.0416
     18 C           0.6506   -0.5371   -0.7030 C.ar    1  LIG1       -0.0094
     19 C           0.1770    1.9226   -0.1979 C.ar    1  LIG1        0.2276
     20 C           3.5600   -2.9178    1.1202 C.3     1  LIG1       -0.0641
     21 C           0.8234   -1.1335   -1.9677 C.ar    1  LIG1       -0.0527
     22 C           0.1377   -1.3342    0.3356 C.ar    1  LIG1       -0.0527
     23 C          -2.0171    1.0003   -0.6760 C.3     1  LIG1        0.1252
     24 C           0.5039   -2.4764   -2.1845 C.ar    1  LIG1       -0.0472
     25 C          -0.1902   -2.6768    0.1192 C.ar    1  LIG1       -0.0472
     26 C           1.9046    3.4367   -0.2106 C.ar    1  LIG1        0.1219
     27 C          -2.0416    1.2193   -2.1845 C.3     1  LIG1        0.1267
     28 C          -0.0004   -3.2419   -1.1386 C.ar    1  LIG1        0.0179
     29 C          -3.1443    0.3000   -4.0148 C.ar    1  LIG1        0.3180
     30 C          -4.4227    1.4939   -5.4764 C.ar    1  LIG1        0.0483
     31 C          -3.5302   -0.5696   -6.0855 C.ar    1  LIG1        0.0483
     32 C          -4.2869    0.5227   -6.4420 C.ar    1  LIG1        0.0543
     33 H           4.2197    1.2515    1.9714 H       1  LIG1        0.1493
     34 H           3.6839    0.3727   -1.7905 H       1  LIG1        0.1763
     35 H           2.3359   -0.5039    1.6551 H       1  LIG1        0.0442
     36 H           3.0405   -0.2145    3.2051 H       1  LIG1        0.0442
     37 H           2.9628   -2.4976    3.1086 H       1  LIG1        0.0275
     38 H           4.6616   -2.1543    2.8156 H       1  LIG1        0.0275
     39 H           2.9470   -2.4522    0.3459 H       1  LIG1        0.0230
     40 H           3.1194   -3.8917    1.3560 H       1  LIG1        0.0230
     41 H           4.5515   -3.1168    0.7058 H       1  LIG1        0.0230
     42 H           1.2181   -0.5555   -2.8026 H       1  LIG1        0.0624
     43 H          -0.0211   -0.9114    1.3264 H       1  LIG1        0.0624
     44 H          -3.0306    1.2085   -0.3061 H       1  LIG1        0.0731
     45 H          -1.8740   -0.0449   -0.4058 H       1  LIG1        0.0731
     46 H           0.6551   -2.9118   -3.1699 H       1  LIG1        0.0629
     47 H          -0.5878   -3.2717    0.9376 H       1  LIG1        0.0629
     48 H           2.2347    4.4670   -0.1240 H       1  LIG1        0.1049
     49 H          -2.5594    2.1643   -2.3894 H       1  LIG1        0.0732
     50 H          -1.0332    1.2961   -2.6026 H       1  LIG1        0.0732
     51 H          -5.0062    2.3930   -5.6511 H       1  LIG1        0.0843
     52 H          -3.3630   -1.3964   -6.7698 H       1  LIG1        0.0843
@<TRIPOS>BOND
     1     1    28    1
     2     2    32    1
     3     3     5    2
     4     3     6    2
     5     3     8    1
     6     3     9    1
     7     4    19    1
     8     4    23    1
     9     7    27    1
    10     7    29    1
    11     8    14    1
    12     9    16    1
    13    10    16   ar
    14    10    26   ar
    15    11    19   ar
    16    11    26   ar
    17    12    29   ar
    18    12    30   ar
    19    13    29   ar
    20    13    31   ar
    21    14    17    1
    22    15    16   ar
    23    15    18    1
    24    15    19   ar
    25    17    20    1
    26    18    21   ar
    27    18    22   ar
    28    21    24   ar
    29    22    25   ar
    30    23    27    1
    31    24    28   ar
    32    25    28   ar
    33    30    32   ar
    34    31    32   ar
    35     8    33    1
    36     9    34    1
    37    14    35    1
    38    14    36    1
    39    17    37    1
    40    17    38    1
    41    20    39    1
    42    20    40    1
    43    20    41    1
    44    21    42    1
    45    22    43    1
    46    23    44    1
    47    23    45    1
    48    24    46    1
    49    25    47    1
    50    26    48    1
    51    27    49    1
    52    27    50    1
    53    30    51    1
    54    31    52    1
@<TRIPOS>MOLECULE
16004692
 52 54 0 0 0
SMALL
GASTEIGER

@<TRIPOS>ATOM
      1 BR         -0.7101   -4.9876   -1.3091 Br      1  LIG1       -0.0503
      2 BR         -4.9869    0.7412   -8.0854 Br      1  LIG1       -0.0472
      3 S           4.7492    0.1807   -0.0168 S.O2    1  LIG1        0.1104
      4 O          -1.2017    1.8347    0.2512 O.3     1  LIG1       -0.4724
      5 O           5.6103   -0.6737   -0.7952 O.2     1  LIG1       -0.1381
      6 O           5.2223    1.4592    0.4535 O.2     1  LIG1       -0.1381
      7 O          -2.6322    0.1691   -2.6729 O.3     1  LIG1       -0.4590
      8 N           4.2461   -0.6473    1.3342 N.3     1  LIG1       -0.1771
      9 N           3.3389    0.3605   -0.9080 N.pl3   1  LIG1       -0.1889
     10 N           2.7625    2.5240   -0.3712 N.ar    1  LIG1       -0.2186
     11 N           0.5591    3.1778    0.1775 N.ar    1  LIG1       -0.2008
     12 N          -3.7454    1.5223   -4.2166 N.ar    1  LIG1       -0.2022
     13 N          -2.9035   -0.6382   -4.7918 N.ar    1  LIG1       -0.2022
     14 C           3.5062   -1.9065    1.2481 C.3     1  LIG1        0.0185
     15 C           0.9961    0.8619   -0.3237 C.ar    1  LIG1        0.0848
     16 C           2.3342    1.2606   -0.4415 C.ar    1  LIG1        0.1532
     17 C           4.3513   -3.1330    0.9332 C.3     1  LIG1       -0.0416
     18 C           0.5833   -0.5315   -0.5474 C.ar    1  LIG1       -0.0094
     19 C           0.1355    1.9088    0.0043 C.ar    1  LIG1        0.2276
     20 C           4.3344   -3.5204   -0.5406 C.3     1  LIG1       -0.0641
     21 C           0.6777   -1.1067   -1.8290 C.ar    1  LIG1       -0.0527
     22 C           0.0883   -1.3276    0.5020 C.ar    1  LIG1       -0.0527
     23 C          -2.0559    1.0286   -0.5493 C.3     1  LIG1        0.1252
     24 C           0.2917   -2.4295   -2.0574 C.ar    1  LIG1       -0.0472
     25 C          -0.3003   -2.6520    0.2749 C.ar    1  LIG1       -0.0472
     26 C           1.8518    3.4285   -0.0253 C.ar    1  LIG1        0.1219
     27 C          -2.0567    1.3178   -2.0494 C.3     1  LIG1        0.1267
     28 C          -0.1942   -3.1962   -1.0035 C.ar    1  LIG1        0.0179
     29 C          -3.0657    0.3955   -3.9519 C.ar    1  LIG1        0.3180
     30 C          -4.2962    1.5985   -5.4479 C.ar    1  LIG1        0.0483
     31 C          -3.4703   -0.5046   -6.0093 C.ar    1  LIG1        0.0483
     32 C          -4.1901    0.6032   -6.3921 C.ar    1  LIG1        0.0543
     33 H           3.9285    0.0043    2.0502 H       1  LIG1        0.1493
     34 H           3.6510    0.6813   -1.8241 H       1  LIG1        0.1763
     35 H           2.6742   -1.8168    0.5567 H       1  LIG1        0.0442
     36 H           3.0571   -2.0531    2.2395 H       1  LIG1        0.0442
     37 H           3.9120   -3.9774    1.4815 H       1  LIG1        0.0275
     38 H           5.3802   -3.0255    1.2920 H       1  LIG1        0.0275
     39 H           3.3794   -3.2833   -1.0189 H       1  LIG1        0.0230
     40 H           4.5016   -4.5976   -0.6483 H       1  LIG1        0.0230
     41 H           5.1307   -3.0212   -1.0967 H       1  LIG1        0.0230
     42 H           1.0514   -0.5246   -2.6704 H       1  LIG1        0.0624
     43 H          -0.0058   -0.9164    1.5063 H       1  LIG1        0.0624
     44 H          -3.0737    1.2293   -0.1878 H       1  LIG1        0.0731
     45 H          -1.9292   -0.0316   -0.3297 H       1  LIG1        0.0731
     46 H           0.3725   -2.8458   -3.0587 H       1  LIG1        0.0629
     47 H          -0.6869   -3.2479    1.0976 H       1  LIG1        0.0629
     48 H           2.1870    4.4526    0.0954 H       1  LIG1        0.1049
     49 H          -2.6215    2.2410   -2.2257 H       1  LIG1        0.0732
     50 H          -1.0448    1.4638   -2.4410 H       1  LIG1        0.0732
     51 H          -4.8511    2.5115   -5.6440 H       1  LIG1        0.0843
     52 H          -3.3275   -1.3509   -6.6751 H       1  LIG1        0.0843
@<TRIPOS>BOND
     1     1    28    1
     2     2    32    1
     3     3     5    2
     4     3     6    2
     5     3     8    1
     6     3     9    1
     7     4    19    1
     8     4    23    1
     9     7    27    1
    10     7    29    1
    11     8    14    1
    12     9    16    1
    13    10    16   ar
    14    10    26   ar
    15    11    19   ar
    16    11    26   ar
    17    12    29   ar
    18    12    30   ar
    19    13    29   ar
    20    13    31   ar
    21    14    17    1
    22    15    16   ar
    23    15    18    1
    24    15    19   ar
    25    17    20    1
    26    18    21   ar
    27    18    22   ar
    28    21    24   ar
    29    22    25   ar
    30    23    27    1
    31    24    28   ar
    32    25    28   ar
    33    30    32   ar
    34    31    32   ar
    35     8    33    1
    36     9    34    1
    37    14    35    1
    38    14    36    1
    39    17    37    1
    40    17    38    1
    41    20    39    1
    42    20    40    1
    43    20    41    1
    44    21    42    1
    45    22    43    1
    46    23    44    1
    47    23    45    1
    48    24    46    1
    49    25    47    1
    50    26    48    1
    51    27    49    1
    52    27    50    1
    53    30    51    1
    54    31    52    1
@<TRIPOS>MOLECULE
16004692
 52 54 0 0 0
SMALL
GASTEIGER

@<TRIPOS>ATOM
      1 BR         -0.1729   -5.2064   -1.8389 Br      1  LIG1       -0.0503
      2 BR         -7.2031    4.0763   -0.1813 Br      1  LIG1       -0.0472
      3 S           4.9372    0.2641    0.0560 S.O2    1  LIG1        0.1104
      4 O          -0.8862    1.2695    0.2768 O.3     1  LIG1       -0.4724
      5 O           5.9173   -0.5959   -0.5594 O.2     1  LIG1       -0.1381
      6 O           5.3343    1.5666    0.5373 O.2     1  LIG1       -0.1381
      7 O          -3.0990    0.2635    1.7033 O.3     1  LIG1       -0.4590
      8 N           4.3349   -0.5244    1.3939 N.3     1  LIG1       -0.1771
      9 N           3.6881    0.4111   -1.0526 N.pl3   1  LIG1       -0.1889
     10 N           2.8722    2.5152   -0.5824 N.ar    1  LIG1       -0.2186
     11 N           0.6112    2.9141   -0.0062 N.ar    1  LIG1       -0.2008
     12 N          -3.6288    2.2565    0.6818 N.ar    1  LIG1       -0.2022
     13 N          -5.3135    0.9289    1.7256 N.ar    1  LIG1       -0.2022
     14 C           3.3224   -1.5691    1.3374 C.3     1  LIG1        0.0185
     15 C           1.2659    0.6918   -0.6876 C.ar    1  LIG1        0.0848
     16 C           2.5589    1.2244   -0.7367 C.ar    1  LIG1        0.1532
     17 C           3.6661   -2.9398    0.7955 C.3     1  LIG1       -0.0416
     18 C           0.9508   -0.7197   -0.9899 C.ar    1  LIG1       -0.0094
     19 C           0.3245    1.6155   -0.2467 C.ar    1  LIG1        0.2276
     20 C           4.0540   -3.0367   -0.6741 C.3     1  LIG1       -0.0641
     21 C           1.1645   -1.2790   -2.2595 C.ar    1  LIG1       -0.0527
     22 C           0.3907   -1.5443    0.0027 C.ar    1  LIG1       -0.0527
     23 C          -1.8285    0.5060   -0.4740 C.3     1  LIG1        0.1252
     24 C           0.8321   -2.6178   -2.5108 C.ar    1  LIG1       -0.0472
     25 C           0.0406   -2.8690   -0.2468 C.ar    1  LIG1       -0.0472
     26 C           1.8694    3.3071   -0.2079 C.ar    1  LIG1        0.1219
     27 C          -2.6118   -0.3848    0.5237 C.3     1  LIG1        0.1267
     28 C           0.2677   -3.4054   -1.5068 C.ar    1  LIG1        0.0179
     29 C          -4.0395    1.1884    1.3792 C.ar    1  LIG1        0.3180
     30 C          -4.5690    3.0906    0.2227 C.ar    1  LIG1        0.0483
     31 C          -6.2130    1.8258    1.2822 C.ar    1  LIG1        0.0483
     32 C          -5.9016    2.9193    0.4951 C.ar    1  LIG1        0.0543
     33 H           4.1487    0.1767    2.1104 H       1  LIG1        0.1493
     34 H           4.1413    0.8251   -1.8697 H       1  LIG1        0.1763
     35 H           2.4943   -1.1410    0.8159 H       1  LIG1        0.0442
     36 H           2.9466   -1.7027    2.3595 H       1  LIG1        0.0442
     37 H           2.7647   -3.5549    0.9155 H       1  LIG1        0.0275
     38 H           4.4387   -3.4147    1.4092 H       1  LIG1        0.0275
     39 H           3.5376   -2.3040   -1.2901 H       1  LIG1        0.0230
     40 H           3.8076   -4.0273   -1.0636 H       1  LIG1        0.0230
     41 H           5.1291   -2.9073   -0.7964 H       1  LIG1        0.0230
     42 H           1.6058   -0.6903   -3.0600 H       1  LIG1        0.0624
     43 H           0.2366   -1.1460    1.0052 H       1  LIG1        0.0624
     44 H          -1.3940   -0.1102   -1.2651 H       1  LIG1        0.0731
     45 H          -2.4919    1.1849   -1.0150 H       1  LIG1        0.0731
     46 H           1.0313   -3.0438   -3.4929 H       1  LIG1        0.0629
     47 H          -0.3964   -3.4657    0.5535 H       1  LIG1        0.0629
     48 H           2.1001    4.3514   -0.0259 H       1  LIG1        0.1049
     49 H          -3.4202   -0.9328    0.0180 H       1  LIG1        0.0732
     50 H          -1.9506   -1.1530    0.9232 H       1  LIG1        0.0732
     51 H          -4.1994    3.9028   -0.3987 H       1  LIG1        0.0843
     52 H          -7.2355    1.6183    1.5805 H       1  LIG1        0.0843
@<TRIPOS>BOND
     1     1    28    1
     2     2    32    1
     3     3     5    2
     4     3     6    2
     5     3     8    1
     6     3     9    1
     7     4    19    1
     8     4    23    1
     9     7    27    1
    10     7    29    1
    11     8    14    1
    12     9    16    1
    13    10    16   ar
    14    10    26   ar
    15    11    19   ar
    16    11    26   ar
    17    12    29   ar
    18    12    30   ar
    19    13    29   ar
    20    13    31   ar
    21    14    17    1
    22    15    16   ar
    23    15    18    1
    24    15    19   ar
    25    17    20    1
    26    18    21   ar
    27    18    22   ar
    28    21    24   ar
    29    22    25   ar
    30    23    27    1
    31    24    28   ar
    32    25    28   ar
    33    30    32   ar
    34    31    32   ar
    35     8    33    1
    36     9    34    1
    37    14    35    1
    38    14    36    1
    39    17    37    1
    40    17    38    1
    41    20    39    1
    42    20    40    1
    43    20    41    1
    44    21    42    1
    45    22    43    1
    46    23    44    1
    47    23    45    1
    48    24    46    1
    49    25    47    1
    50    26    48    1
    51    27    49    1
    52    27    50    1
    53    30    51    1
    54    31    52    1
@<TRIPOS>MOLECULE
16004692
 52 54 0 0 0
SMALL
GASTEIGER

@<TRIPOS>ATOM
      1 BR          1.1436   -5.6231   -0.1079 Br      1  LIG1       -0.0503
      2 BR         -0.1628   -3.4370   -5.4042 Br      1  LIG1       -0.0472
      3 S           3.4883    1.0366   -3.1730 S.O2    1  LIG1        0.1104
      4 O          -0.7956    0.6420    0.8180 O.3     1  LIG1       -0.4724
      5 O           4.6490    0.3225   -3.6356 O.2     1  LIG1       -0.1381
      6 O           2.1744    0.7214   -3.6866 O.2     1  LIG1       -0.1381
      7 O          -3.4550   -0.8250   -1.2084 O.3     1  LIG1       -0.4590
      8 N           3.7053    2.6761   -3.3809 N.3     1  LIG1       -0.1771
      9 N           3.4557    0.8679   -1.5071 N.pl3   1  LIG1       -0.1889
     10 N           2.2538    2.7259   -0.8687 N.ar    1  LIG1       -0.2186
     11 N           0.2000    2.6414    0.3094 N.ar    1  LIG1       -0.2008
     12 N          -2.1491   -0.6324   -3.1051 N.ar    1  LIG1       -0.2022
     13 N          -2.6283   -2.7753   -2.1500 N.ar    1  LIG1       -0.2022
     14 C           4.8539    3.3746   -2.7766 C.3     1  LIG1        0.0185
     15 C           1.3231    0.5596   -0.2886 C.ar    1  LIG1        0.0848
     16 C           2.2878    1.3758   -0.8634 C.ar    1  LIG1        0.1532
     17 C           6.1966    2.9897   -3.3833 C.3     1  LIG1       -0.0416
     18 C           1.3468   -0.9174   -0.2534 C.ar    1  LIG1       -0.0094
     19 C           0.2780    1.2961    0.2610 C.ar    1  LIG1        0.2276
     20 C           7.0441    2.1769   -2.4135 C.3     1  LIG1       -0.0641
     21 C           1.4246   -1.6894   -1.4243 C.ar    1  LIG1       -0.0527
     22 C           1.2284   -1.6067    0.9692 C.ar    1  LIG1       -0.0527
     23 C          -1.8888    0.6890   -0.1073 C.3     1  LIG1        0.1252
     24 C           1.3953   -3.0878   -1.3793 C.ar    1  LIG1       -0.0472
     25 C           1.1689   -3.0041    1.0179 C.ar    1  LIG1       -0.0472
     26 C           1.2098    3.2934   -0.2588 C.ar    1  LIG1        0.1219
     27 C          -2.6081   -0.6591   -0.0704 C.3     1  LIG1        0.1267
     28 C           1.2522   -3.7381   -0.1593 C.ar    1  LIG1        0.0179
     29 C          -2.7247   -1.4380   -2.1996 C.ar    1  LIG1        0.3180
     30 C          -1.4029   -1.2499   -4.0453 C.ar    1  LIG1        0.0483
     31 C          -1.8733   -3.3376   -3.1172 C.ar    1  LIG1        0.0483
     32 C          -1.2296   -2.6148   -4.0974 C.ar    1  LIG1        0.0543
     33 H           2.8231    3.1365   -3.1535 H       1  LIG1        0.1493
     34 H           3.6456   -0.1095   -1.2839 H       1  LIG1        0.1763
     35 H           4.8372    3.2769   -1.6871 H       1  LIG1        0.0442
     36 H           4.6847    4.4400   -2.9795 H       1  LIG1        0.0442
     37 H           6.7531    3.9070   -3.6128 H       1  LIG1        0.0275
     38 H           6.0800    2.4528   -4.3311 H       1  LIG1        0.0275
     39 H           7.2438    2.7503   -1.5021 H       1  LIG1        0.0230
     40 H           8.0057    1.9258   -2.8701 H       1  LIG1        0.0230
     41 H           6.5507    1.2465   -2.1229 H       1  LIG1        0.0230
     42 H           1.4727   -1.2187   -2.4022 H       1  LIG1        0.0624
     43 H           1.1476   -1.0546    1.9060 H       1  LIG1        0.0624
     44 H          -1.5632    0.9247   -1.1288 H       1  LIG1        0.0731
     45 H          -2.5764    1.4874    0.1973 H       1  LIG1        0.0731
     46 H           1.4621   -3.6551   -2.3043 H       1  LIG1        0.0629
     47 H           1.0445   -3.5025    1.9756 H       1  LIG1        0.0629
     48 H           1.1826    4.3765   -0.2253 H       1  LIG1        0.1049
     49 H          -1.8992   -1.4896    0.0524 H       1  LIG1        0.0732
     50 H          -3.2466   -0.6921    0.8206 H       1  LIG1        0.0732
     51 H          -0.9309   -0.5868   -4.7654 H       1  LIG1        0.0843
     52 H          -1.7966   -4.4199   -3.0645 H       1  LIG1        0.0843
@<TRIPOS>BOND
     1     1    28    1
     2     2    32    1
     3     3     5    2
     4     3     6    2
     5     3     8    1
     6     3     9    1
     7     4    19    1
     8     4    23    1
     9     7    27    1
    10     7    29    1
    11     8    14    1
    12     9    16    1
    13    10    16   ar
    14    10    26   ar
    15    11    19   ar
    16    11    26   ar
    17    12    29   ar
    18    12    30   ar
    19    13    29   ar
    20    13    31   ar
    21    14    17    1
    22    15    16   ar
    23    15    18    1
    24    15    19   ar
    25    17    20    1
    26    18    21   ar
    27    18    22   ar
    28    21    24   ar
    29    22    25   ar
    30    23    27    1
    31    24    28   ar
    32    25    28   ar
    33    30    32   ar
    34    31    32   ar
    35     8    33    1
    36     9    34    1
    37    14    35    1
    38    14    36    1
    39    17    37    1
    40    17    38    1
    41    20    39    1
    42    20    40    1
    43    20    41    1
    44    21    42    1
    45    22    43    1
    46    23    44    1
    47    23    45    1
    48    24    46    1
    49    25    47    1
    50    26    48    1
    51    27    49    1
    52    27    50    1
    53    30    51    1
    54    31    52    1
@<TRIPOS>MOLECULE
16004692
 52 54 0 0 0
SMALL
GASTEIGER

@<TRIPOS>ATOM
      1 BR          0.1623   -5.3903   -1.4708 Br      1  LIG1       -0.0503
      2 BR         -1.0773   -3.5802   -5.5460 Br      1  LIG1       -0.0472
      3 S           4.8880    0.3886   -0.0606 S.O2    1  LIG1        0.1104
      4 O          -1.0730    0.9867    0.6339 O.3     1  LIG1       -0.4724
      5 O           5.7906   -0.4134   -0.8482 O.2     1  LIG1       -0.1381
      6 O           5.2907    1.7026    0.3868 O.2     1  LIG1       -0.1381
      7 O          -3.7964   -0.1330   -1.5467 O.3     1  LIG1       -0.4590
      8 N           4.4582   -0.4522    1.3018 N.3     1  LIG1       -0.1771
      9 N           3.4755    0.5065   -0.9486 N.pl3   1  LIG1       -0.1889
     10 N           2.5919    2.5175   -0.2431 N.ar    1  LIG1       -0.2186
     11 N           0.3562    2.7660    0.5278 N.ar    1  LIG1       -0.2008
     12 N          -2.5381   -0.3172   -3.4692 N.ar    1  LIG1       -0.2022
     13 N          -3.2422   -2.2689   -2.2729 N.ar    1  LIG1       -0.2022
     14 C           3.8053   -1.7594    1.2505 C.3     1  LIG1        0.0185
     15 C           1.1367    0.5811   -0.1962 C.ar    1  LIG1        0.0848
     16 C           2.3686    1.2065   -0.3906 C.ar    1  LIG1        0.1532
     17 C           4.7417   -2.9410    1.0466 C.3     1  LIG1       -0.0416
     18 C           0.8582   -0.8336   -0.5124 C.ar    1  LIG1       -0.0094
     19 C           0.1719    1.4566    0.2902 C.ar    1  LIG1        0.2276
     20 C           4.8973   -3.3480   -0.4142 C.3     1  LIG1       -0.0641
     21 C           1.1716   -1.3711   -1.7760 C.ar    1  LIG1       -0.0527
     22 C           0.2912   -1.6993    0.4413 C.ar    1  LIG1       -0.0527
     23 C          -1.9640    1.0881   -0.4825 C.3     1  LIG1        0.1252
     24 C           0.9722   -2.7252   -2.0590 C.ar    1  LIG1       -0.0472
     25 C           0.0723   -3.0510    0.1555 C.ar    1  LIG1       -0.0472
     26 C           1.5721    3.2372    0.2320 C.ar    1  LIG1        0.1219
     27 C          -2.9881   -0.0442   -0.3751 C.3     1  LIG1        0.1267
     28 C           0.4244   -3.5590   -1.0905 C.ar    1  LIG1        0.0179
     29 C          -3.1647   -0.9421   -2.4614 C.ar    1  LIG1        0.3180
     30 C          -1.9366   -1.1241   -4.3682 C.ar    1  LIG1        0.0483
     31 C          -2.6218   -3.0241   -3.2050 C.ar    1  LIG1        0.0483
     32 C          -1.9458   -2.4978   -4.2827 C.ar    1  LIG1        0.0543
     33 H           4.1268    0.1822    2.0266 H       1  LIG1        0.1493
     34 H           3.7510    0.9842   -1.8067 H       1  LIG1        0.1763
     35 H           3.0127   -1.7684    0.5131 H       1  LIG1        0.0442
     36 H           3.3107   -1.8843    2.2239 H       1  LIG1        0.0442
     37 H           4.2954   -3.7994    1.5654 H       1  LIG1        0.0275
     38 H           5.7217   -2.7694    1.5040 H       1  LIG1        0.0275
     39 H           4.0134   -3.1006   -1.0106 H       1  LIG1        0.0230
     40 H           5.0552   -4.4287   -0.4891 H       1  LIG1        0.0230
     41 H           5.7668   -2.8684   -0.8681 H       1  LIG1        0.0230
     42 H           1.5995   -0.7410   -2.5541 H       1  LIG1        0.0624
     43 H           0.0277   -1.3303    1.4321 H       1  LIG1        0.0624
     44 H          -1.4340    1.0359   -1.4415 H       1  LIG1        0.0731
     45 H          -2.4767    2.0569   -0.4487 H       1  LIG1        0.0731
     46 H           1.2582   -3.1159   -3.0322 H       1  LIG1        0.0629
     47 H          -0.3629   -3.6958    0.9151 H       1  LIG1        0.0629
     48 H           1.7457    4.2975    0.3914 H       1  LIG1        0.1049
     49 H          -2.5065   -0.9984   -0.1235 H       1  LIG1        0.0732
     50 H          -3.6562    0.1647    0.4694 H       1  LIG1        0.0732
     51 H          -1.4339   -0.6068   -5.1804 H       1  LIG1        0.0843
     52 H          -2.6873   -4.0966   -3.0438 H       1  LIG1        0.0843
@<TRIPOS>BOND
     1     1    28    1
     2     2    32    1
     3     3     5    2
     4     3     6    2
     5     3     8    1
     6     3     9    1
     7     4    19    1
     8     4    23    1
     9     7    27    1
    10     7    29    1
    11     8    14    1
    12     9    16    1
    13    10    16   ar
    14    10    26   ar
    15    11    19   ar
    16    11    26   ar
    17    12    29   ar
    18    12    30   ar
    19    13    29   ar
    20    13    31   ar
    21    14    17    1
    22    15    16   ar
    23    15    18    1
    24    15    19   ar
    25    17    20    1
    26    18    21   ar
    27    18    22   ar
    28    21    24   ar
    29    22    25   ar
    30    23    27    1
    31    24    28   ar
    32    25    28   ar
    33    30    32   ar
    34    31    32   ar
    35     8    33    1
    36     9    34    1
    37    14    35    1
    38    14    36    1
    39    17    37    1
    40    17    38    1
    41    20    39    1
    42    20    40    1
    43    20    41    1
    44    21    42    1
    45    22    43    1
    46    23    44    1
    47    23    45    1
    48    24    46    1
    49    25    47    1
    50    26    48    1
    51    27    49    1
    52    27    50    1
    53    30    51    1
    54    31    52    1
@<TRIPOS>MOLECULE
16004692
 52 54 0 0 0
SMALL
GASTEIGER

@<TRIPOS>ATOM
      1 BR         -1.0733   -4.4323   -1.9150 Br      1  LIG1       -0.0503
      2 BR         -4.0472   -3.5317    3.7160 Br      1  LIG1       -0.0472
      3 S           4.7371    0.1372    0.0073 S.O2    1  LIG1        0.1104
      4 O          -0.9645    2.1755   -0.2699 O.3     1  LIG1       -0.4724
      5 O           5.5963   -0.7993   -0.6748 O.2     1  LIG1       -0.1381
      6 O           5.2832    1.3387    0.5862 O.2     1  LIG1       -0.1381
      7 O          -3.5499    1.3319    0.3396 O.3     1  LIG1       -0.4590
      8 N           3.9501   -0.6502    1.2407 N.3     1  LIG1       -0.1771
      9 N           3.5059    0.5129   -1.0684 N.pl3   1  LIG1       -0.1889
     10 N           3.0620    2.6992   -0.4965 N.ar    1  LIG1       -0.2186
     11 N           0.8925    3.5166   -0.0095 N.ar    1  LIG1       -0.2008
     12 N          -2.9192    0.1866    2.2927 N.ar    1  LIG1       -0.2022
     13 N          -4.5552   -0.6695    0.7803 N.ar    1  LIG1       -0.2022
     14 C           3.1182   -1.8316    1.0125 C.3     1  LIG1        0.0185
     15 C           1.1763    1.1872   -0.6424 C.ar    1  LIG1        0.0848
     16 C           2.5375    1.4784   -0.6695 C.ar    1  LIG1        0.1532
     17 C           3.8945   -3.1321    0.8528 C.3     1  LIG1       -0.0416
     18 C           0.5988   -0.1307   -0.9716 C.ar    1  LIG1       -0.0094
     19 C           0.4092    2.2844   -0.2683 C.ar    1  LIG1        0.2276
     20 C           4.1058   -3.5382   -0.6016 C.3     1  LIG1       -0.0641
     21 C           0.8792   -0.7690   -2.1941 C.ar    1  LIG1       -0.0527
     22 C          -0.2279   -0.8111   -0.0575 C.ar    1  LIG1       -0.0527
     23 C          -1.5050    2.5586    1.0007 C.3     1  LIG1        0.1252
     24 C           0.3814   -2.0457   -2.4786 C.ar    1  LIG1       -0.0472
     25 C          -0.7346   -2.0836   -0.3405 C.ar    1  LIG1       -0.0472
     26 C           2.2092    3.6639   -0.1509 C.ar    1  LIG1        0.1219
     27 C          -3.0335    2.5207    0.9364 C.3     1  LIG1        0.1267
     28 C          -0.4199   -2.6983   -1.5474 C.ar    1  LIG1        0.0179
     29 C          -3.6902    0.2685    1.1937 C.ar    1  LIG1        0.3180
     30 C          -3.0535   -0.9445    3.0207 C.ar    1  LIG1        0.0483
     31 C          -4.6549   -1.7729    1.5494 C.ar    1  LIG1        0.0483
     32 C          -3.9127   -1.9673    2.6896 C.ar    1  LIG1        0.0543
     33 H           3.5955    0.0190    1.9213 H       1  LIG1        0.1493
     34 H           3.9834    0.8696   -1.8960 H       1  LIG1        0.1763
     35 H           2.4340   -1.6749    0.1843 H       1  LIG1        0.0442
     36 H           2.4879   -1.9251    1.9070 H       1  LIG1        0.0442
     37 H           3.2957   -3.9270    1.3162 H       1  LIG1        0.0275
     38 H           4.8509   -3.1064    1.3860 H       1  LIG1        0.0275
     39 H           3.2836   -3.2099   -1.2451 H       1  LIG1        0.0230
     40 H           4.1766   -4.6279   -0.6798 H       1  LIG1        0.0230
     41 H           5.0382   -3.1331   -0.9991 H       1  LIG1        0.0230
     42 H           1.5035   -0.2809   -2.9404 H       1  LIG1        0.0624
     43 H          -0.4757   -0.3601    0.9006 H       1  LIG1        0.0624
     44 H          -1.2040    3.5772    1.2753 H       1  LIG1        0.0731
     45 H          -1.1303    1.8715    1.7666 H       1  LIG1        0.0731
     46 H           0.6306   -2.5192   -3.4249 H       1  LIG1        0.0629
     47 H          -1.3676   -2.5831    0.3874 H       1  LIG1        0.0629
     48 H           2.6228    4.6510    0.0246 H       1  LIG1        0.1049
     49 H          -3.4817    2.7104    1.9203 H       1  LIG1        0.0732
     50 H          -3.3640    3.3383    0.2849 H       1  LIG1        0.0732
     51 H          -2.4180   -1.0012    3.8998 H       1  LIG1        0.0843
     52 H          -5.3674   -2.5125    1.1959 H       1  LIG1        0.0843
@<TRIPOS>BOND
     1     1    28    1
     2     2    32    1
     3     3     5    2
     4     3     6    2
     5     3     8    1
     6     3     9    1
     7     4    19    1
     8     4    23    1
     9     7    27    1
    10     7    29    1
    11     8    14    1
    12     9    16    1
    13    10    16   ar
    14    10    26   ar
    15    11    19   ar
    16    11    26   ar
    17    12    29   ar
    18    12    30   ar
    19    13    29   ar
    20    13    31   ar
    21    14    17    1
    22    15    16   ar
    23    15    18    1
    24    15    19   ar
    25    17    20    1
    26    18    21   ar
    27    18    22   ar
    28    21    24   ar
    29    22    25   ar
    30    23    27    1
    31    24    28   ar
    32    25    28   ar
    33    30    32   ar
    34    31    32   ar
    35     8    33    1
    36     9    34    1
    37    14    35    1
    38    14    36    1
    39    17    37    1
    40    17    38    1
    41    20    39    1
    42    20    40    1
    43    20    41    1
    44    21    42    1
    45    22    43    1
    46    23    44    1
    47    23    45    1
    48    24    46    1
    49    25    47    1
    50    26    48    1
    51    27    49    1
    52    27    50    1
    53    30    51    1
    54    31    52    1
@<TRIPOS>MOLECULE
16004692
 52 54 0 0 0
SMALL
GASTEIGER

@<TRIPOS>ATOM
      1 BR         -0.3757   -5.1982   -0.7748 Br      1  LIG1       -0.0503
      2 BR         -1.1807    2.8489    6.2169 Br      1  LIG1       -0.0472
      3 S           3.7308    0.4036   -2.3085 S.O2    1  LIG1        0.1104
      4 O          -0.8684    2.0171    0.2532 O.3     1  LIG1       -0.4724
      5 O           4.5277    0.1892   -3.2416 O.2     1  LIG1       -0.1381
      6 O           2.7277   -0.5369   -3.3718 O.2     1  LIG1       -0.1381
      7 O           1.2137   -0.4536    1.7490 O.3     1  LIG1       -0.4590
      8 N           3.2782    1.9748   -3.4544 N.3     1  LIG1       -0.1771
      9 N           3.6211    0.5826   -1.1958 N.pl3   1  LIG1       -0.1889
     10 N           2.9011    2.7235    0.0652 N.ar    1  LIG1       -0.2186
     11 N           0.6649    3.1339    0.2641 N.ar    1  LIG1       -0.2008
     12 N           1.4500    1.5108    3.7943 N.ar    1  LIG1       -0.2022
     13 N          -0.7078    0.6852    2.9134 N.ar    1  LIG1       -0.2022
     14 C           3.9996    3.1338   -3.4856 C.3     1  LIG1        0.0185
     15 C           1.3213    0.9132   -0.3931 C.ar    1  LIG1        0.0848
     16 C           2.5679    1.5439   -0.0892 C.ar    1  LIG1        0.1532
     17 C           5.4914    3.0245   -3.1754 C.3     1  LIG1       -0.0416
     18 C           0.9940   -0.4850   -1.1706 C.ar    1  LIG1       -0.0094
     19 C           0.4003    1.8231   -0.5149 C.ar    1  LIG1        0.2276
     20 C           6.7188    1.7767   -2.5699 C.3     1  LIG1       -0.0641
     21 C           2.5883   -1.4555   -0.4463 C.ar    1  LIG1       -0.0527
     22 C          -0.3159   -0.8626   -0.8659 C.ar    1  LIG1       -0.0527
     23 C          -1.0132    0.6804    0.8726 C.3     1  LIG1        0.1252
     24 C           1.6728   -2.8033   -0.6175 C.ar    1  LIG1       -0.0472
     25 C          -0.6315   -2.8105   -1.6372 C.ar    1  LIG1       -0.0472
     26 C           1.9163    3.5105    0.4658 C.ar    1  LIG1        0.1219
     27 C           0.3483   -0.5873    1.4909 C.3     1  LIG1        0.1267
     28 C           0.3628   -3.6791   -1.5130 C.ar    1  LIG1        0.0179
     29 C           0.6284    0.2070    2.7969 C.ar    1  LIG1        0.3180
     30 C           0.8402    2.1504    4.6184 C.ar    1  LIG1        0.0483
     31 C          -1.2513    1.3500    3.9540 C.ar    1  LIG1        0.0483
     32 C          -0.5197    2.1055    4.8477 C.ar    1  LIG1        0.0543
     33 H           2.2882    2.0978   -3.2419 H       1  LIG1        0.1493
     34 H           4.2511    0.1284   -0.5908 H       1  LIG1        0.1763
     35 H           3.8470    3.1592   -2.4268 H       1  LIG1        0.0442
     36 H           3.6236    4.0304   -3.3325 H       1  LIG1        0.0442
     37 H           5.9824    3.8850   -2.8358 H       1  LIG1        0.0275
     38 H           5.6102    2.9628   -4.2370 H       1  LIG1        0.0275
     39 H           6.6167    1.6328   -0.9052 H       1  LIG1        0.0230
     40 H           7.1565    1.7437   -2.8278 H       1  LIG1        0.0230
     41 H           6.2240    0.9079   -2.3510 H       1  LIG1        0.0230
     42 H           2.9574   -1.7762   -0.2276 H       1  LIG1        0.0624
     43 H          -1.0516   -0.1448   -1.5577 H       1  LIG1        0.0624
     44 H          -1.6675   -0.4573    0.2187 H       1  LIG1        0.0731
     45 H          -2.0270   -0.5163    1.8594 H       1  LIG1        0.0731
     46 H           2.4084   -3.5212   -0.5256 H       1  LIG1        0.0629
     47 H          -1.6006   -2.4898   -1.2558 H       1  LIG1        0.0629
     48 H           2.1450    4.5088    0.0660 H       1  LIG1        0.1049
     49 H          -0.3488   -2.1899    1.8517 H       1  LIG1        0.0732
     50 H           0.1538   -1.2076    0.5009 H       1  LIG1        0.0732
     51 H           1.4243    2.7049    5.2636 H       1  LIG1        0.0843
     52 H          -2.2726    1.2902    4.0894 H       1  LIG1        0.0843
@<TRIPOS>BOND
     1     1    28    1
     2     2    32    1
     3     3     5    2
     4     3     6    2
     5     3     8    1
     6     3     9    1
     7     4    19    1
     8     4    23    1
     9     7    27    1
    10     7    29    1
    11     8    14    1
    12     9    16    1
    13    10    16   ar
    14    10    26   ar
    15    11    19   ar
    16    11    26   ar
    17    12    29   ar
    18    12    30   ar
    19    13    29   ar
    20    13    31   ar
    21    14    17    1
    22    15    16   ar
    23    15    18    1
    24    15    19   ar
    25    17    20    1
    26    18    21   ar
    27    18    22   ar
    28    21    24   ar
    29    22    25   ar
    30    23    27    1
    31    24    28   ar
    32    25    28   ar
    33    30    32   ar
    34    31    32   ar
    35     8    33    1
    36     9    34    1
    37    14    35    1
    38    14    36    1
    39    17    37    1
    40    17    38    1
    41    20    39    1
    42    20    40    1
    43    20    41    1
    44    21    42    1
    45    22    43    1
    46    23    44    1
    47    23    45    1
    48    24    46    1
    49    25    47    1
    50    26    48    1
    51    27    49    1
    52    27    50    1
    53    30    51    1
    54    31    52    1
@<TRIPOS>MOLECULE
16004692
 52 54 0 0 0
SMALL
GASTEIGER

@<TRIPOS>ATOM
      1 BR         -0.3761   -5.1979   -0.7768 Br      1  LIG1       -0.0503
      2 BR         -1.1809    2.8400    6.2224 Br      1  LIG1       -0.0472
      3 S           3.7308    0.4036   -2.3085 S.O2    1  LIG1        0.1104
      4 O          -0.8684    2.0171    0.4085 O.3     1  LIG1       -0.4724
      5 O           4.5277    0.1892   -3.2416 O.2     1  LIG1       -0.1381
      6 O           2.7277   -0.5369   -3.3718 O.2     1  LIG1       -0.1381
      7 O           1.2137   -0.4536    1.7490 O.3     1  LIG1       -0.4590
      8 N           3.2782    1.9748   -3.4544 N.3     1  LIG1       -0.1771
      9 N           3.6211    0.5826   -1.1958 N.pl3   1  LIG1       -0.1889
     10 N           2.9011    2.7235    0.0652 N.ar    1  LIG1       -0.2186
     11 N           0.6649    3.1339   -0.3359 N.ar    1  LIG1       -0.2008
     12 N           1.4873    1.3369    3.2094 N.ar    1  LIG1       -0.2022
     13 N           0.1073    0.2582    3.3028 N.ar    1  LIG1       -0.2022
     14 C           3.9996    3.1338   -3.4856 C.3     1  LIG1        0.0185
     15 C           1.3213    0.9132   -0.3931 C.ar    1  LIG1        0.0848
     16 C           2.5679    1.0037   -0.0892 C.ar    1  LIG1        0.1532
     17 C           5.4914    3.0245   -3.1754 C.3     1  LIG1       -0.0416
     18 C           0.9940   -0.4850   -1.1706 C.ar    1  LIG1       -0.0094
     19 C           0.4003    1.8231   -0.5149 C.ar    1  LIG1        0.2276
     20 C           6.7188    1.7767   -2.5699 C.3     1  LIG1       -0.0641
     21 C           2.5883   -1.4555   -0.4463 C.ar    1  LIG1       -0.0527
     22 C          -0.3159   -0.8626   -0.8659 C.ar    1  LIG1       -0.0527
     23 C          -1.0132    0.6804    0.8726 C.3     1  LIG1        0.1252
     24 C           1.6728   -2.8033   -0.6175 C.ar    1  LIG1       -0.0472
     25 C          -0.6315   -2.8105   -1.6372 C.ar    1  LIG1       -0.0472
     26 C           1.9163    3.5105    0.5388 C.ar    1  LIG1        0.1219
     27 C           0.3483   -0.5873    1.4909 C.3     1  LIG1        0.1267
     28 C           0.3628   -3.6819   -1.5130 C.ar    1  LIG1        0.0179
     29 C           1.2284    0.8070    3.3969 C.ar    1  LIG1        0.3180
     30 C           0.6296    2.5627    4.2408 C.ar    1  LIG1        0.0483
     31 C          -1.0437    0.9354    4.3313 C.ar    1  LIG1        0.0483
     32 C          -0.5217    2.1040    4.8475 C.ar    1  LIG1        0.0543
     33 H           2.2882    2.0978   -3.2419 H       1  LIG1        0.1493
     34 H           4.2511    0.1284   -0.5908 H       1  LIG1        0.1763
     35 H           3.8470    3.1592   -2.4268 H       1  LIG1        0.0442
     36 H           3.6236    4.0304   -3.3325 H       1  LIG1        0.0442
     37 H           5.9824    3.8850   -2.8357 H       1  LIG1        0.0275
     38 H           5.6102    2.9628   -4.2370 H       1  LIG1        0.0275
     39 H           6.6167    1.6328   -0.9052 H       1  LIG1        0.0230
     40 H           7.1565    1.7437   -2.8278 H       1  LIG1        0.0230
     41 H           6.2240    0.9079   -2.3510 H       1  LIG1        0.0230
     42 H           2.9574   -1.7762   -0.2276 H       1  LIG1        0.0624
     43 H          -1.0516   -0.1448   -1.5577 H       1  LIG1        0.0624
     44 H          -1.6675   -0.4573    0.2187 H       1  LIG1        0.0731
     45 H          -2.0270   -0.5163    1.8594 H       1  LIG1        0.0731
     46 H           2.4084   -3.5212   -0.5256 H       1  LIG1        0.0629
     47 H          -1.6006   -2.4898   -1.2558 H       1  LIG1        0.0629
     48 H           2.1450    4.5088    0.0660 H       1  LIG1        0.1049
     49 H          -0.3488   -2.1899    1.8517 H       1  LIG1        0.0732
     50 H           0.1538   -1.2076    0.5009 H       1  LIG1        0.0732
     51 H           1.0527    3.4343    4.5963 H       1  LIG1        0.0843
     52 H          -1.9050    0.5579    4.7565 H       1  LIG1        0.0843
@<TRIPOS>BOND
     1     1    28    1
     2     2    32    1
     3     3     5    2
     4     3     6    2
     5     3     8    1
     6     3     9    1
     7     4    19    1
     8     4    23    1
     9     7    27    1
    10     7    29    1
    11     8    14    1
    12     9    16    1
    13    10    16   ar
    14    10    26   ar
    15    11    19   ar
    16    11    26   ar
    17    12    29   ar
    18    12    30   ar
    19    13    29   ar
    20    13    31   ar
    21    14    17    1
    22    15    16   ar
    23    15    18    1
    24    15    19   ar
    25    17    20    1
    26    18    21   ar
    27    18    22   ar
    28    21    24   ar
    29    22    25   ar
    30    23    27    1
    31    24    28   ar
    32    25    28   ar
    33    30    32   ar
    34    31    32   ar
    35     8    33    1
    36     9    34    1
    37    14    35    1
    38    14    36    1
    39    17    37    1
    40    17    38    1
    41    20    39    1
    42    20    40    1
    43    20    41    1
    44    21    42    1
    45    22    43    1
    46    23    44    1
    47    23    45    1
    48    24    46    1
    49    25    47    1
    50    26    48    1
    51    27    49    1
    52    27    50    1
    53    30    51    1
    54    31    52    1
@<TRIPOS>MOLECULE
16004692
 52 54 0 0 0
SMALL
GASTEIGER

@<TRIPOS>ATOM
      1 BR         -0.3187   -4.9861   -1.3801 Br      1  LIG1       -0.0503
      2 BR         -3.9059    1.8092   -5.1710 Br      1  LIG1       -0.0472
      3 S           3.5655    0.6050   -2.8636 S.O2    1  LIG1        0.1104
      4 O          -0.6663    1.4607    0.5991 O.3     1  LIG1       -0.4724
      5 O           4.8249    0.1425   -3.3897 O.2     1  LIG1       -0.1381
      6 O           2.3330   -0.0698   -3.1902 O.2     1  LIG1       -0.1381
      7 O          -0.9294    4.0835   -0.5696 O.3     1  LIG1       -0.4590
      8 N           3.3322    2.1839   -3.3279 N.3     1  LIG1       -0.1771
      9 N           3.7550    0.7016   -1.2113 N.pl3   1  LIG1       -0.1889
     10 N           3.2454    2.4689    0.0799 N.ar    1  LIG1       -0.2186
     11 N           1.1295    2.8660    1.0684 N.ar    1  LIG1       -0.2008
     12 N          -0.9304    3.2399   -2.6856 N.ar    1  LIG1       -0.2022
     13 N          -2.9780    3.3643   -1.4510 N.ar    1  LIG1       -0.2022
     14 C           4.2573    3.2860   -3.0458 C.3     1  LIG1        0.0185
     15 C           1.4747    0.8265   -0.2060 C.ar    1  LIG1        0.0848
     16 C           2.7501    1.3243   -0.4294 C.ar    1  LIG1        0.1532
     17 C           5.7072    3.0531   -3.4381 C.3     1  LIG1       -0.0416
     18 C           1.0429   -0.5502   -0.5402 C.ar    1  LIG1       -0.0094
     19 C           0.6817    1.7268    0.5052 C.ar    1  LIG1        0.2276
     20 C           5.9070    2.8795   -4.9353 C.3     1  LIG1       -0.0641
     21 C           1.8541   -1.6499   -0.1884 C.ar    1  LIG1       -0.0527
     22 C          -0.1844   -0.8301   -1.1662 C.ar    1  LIG1       -0.0527
     23 C          -1.5013    2.4265    1.2392 C.3     1  LIG1        0.1252
     24 C           1.4592   -2.9661   -0.4464 C.ar    1  LIG1       -0.0472
     25 C          -0.5922   -2.1472   -1.4151 C.ar    1  LIG1       -0.0472
     26 C           2.4001    3.1811    0.8253 C.ar    1  LIG1        0.1219
     27 C          -1.4814    3.8824    0.7276 C.3     1  LIG1        0.1267
     28 C           0.2324   -3.2079   -1.0537 C.ar    1  LIG1        0.0179
     29 C          -1.6508    3.5277   -1.5897 C.ar    1  LIG1        0.3180
     30 C          -1.6201    2.7271   -3.7242 C.ar    1  LIG1        0.0483
     31 C          -3.6153    2.8571   -2.5284 C.ar    1  LIG1        0.0483
     32 C          -2.9791    2.5154   -3.7000 C.ar    1  LIG1        0.0543
     33 H           2.3427    2.4326   -3.2652 H       1  LIG1        0.1493
     34 H           4.6683    1.0876   -0.9943 H       1  LIG1        0.1763
     35 H           4.1958    3.5546   -1.9886 H       1  LIG1        0.0442
     36 H           3.8806    4.1615   -3.5923 H       1  LIG1        0.0442
     37 H           6.1314    2.2014   -2.8989 H       1  LIG1        0.0275
     38 H           6.2883    3.9282   -3.1195 H       1  LIG1        0.0275
     39 H           5.3870    1.9952   -5.3152 H       1  LIG1        0.0230
     40 H           6.9730    2.7648   -5.1591 H       1  LIG1        0.0230
     41 H           5.5407    3.7535   -5.4828 H       1  LIG1        0.0230
     42 H           2.8144   -1.4928    0.3003 H       1  LIG1        0.0624
     43 H          -0.8422   -0.0192   -1.4737 H       1  LIG1        0.0624
     44 H          -1.3289    2.3995    2.3228 H       1  LIG1        0.0731
     45 H          -2.5234    2.0500    1.1058 H       1  LIG1        0.0731
     46 H           2.1145   -3.7867   -0.1678 H       1  LIG1        0.0629
     47 H          -1.5498   -2.3294   -1.8918 H       1  LIG1        0.0629
     48 H           2.7729    4.1028    1.2570 H       1  LIG1        0.1049
     49 H          -2.4751    4.3429    0.8175 H       1  LIG1        0.0732
     50 H          -0.8572    4.4699    1.4117 H       1  LIG1        0.0732
     51 H          -1.0210    2.4895   -4.5992 H       1  LIG1        0.0843
     52 H          -4.6893    2.7374   -2.4090 H       1  LIG1        0.0843
@<TRIPOS>BOND
     1     1    28    1
     2     2    32    1
     3     3     5    2
     4     3     6    2
     5     3     8    1
     6     3     9    1
     7     4    19    1
     8     4    23    1
     9     7    27    1
    10     7    29    1
    11     8    14    1
    12     9    16    1
    13    10    16   ar
    14    10    26   ar
    15    11    19   ar
    16    11    26   ar
    17    12    29   ar
    18    12    30   ar
    19    13    29   ar
    20    13    31   ar
    21    14    17    1
    22    15    16   ar
    23    15    18    1
    24    15    19   ar
    25    17    20    1
    26    18    21   ar
    27    18    22   ar
    28    21    24   ar
    29    22    25   ar
    30    23    27    1
    31    24    28   ar
    32    25    28   ar
    33    30    32   ar
    34    31    32   ar
    35     8    33    1
    36     9    34    1
    37    14    35    1
    38    14    36    1
    39    17    37    1
    40    17    38    1
    41    20    39    1
    42    20    40    1
    43    20    41    1
    44    21    42    1
    45    22    43    1
    46    23    44    1
    47    23    45    1
    48    24    46    1
    49    25    47    1
    50    26    48    1
    51    27    49    1
    52    27    50    1
    53    30    51    1
    54    31    52    1
@<TRIPOS>MOLECULE
16004692
 52 54 0 0 0
SMALL
GASTEIGER

@<TRIPOS>ATOM
      1 BR         -0.2936   -4.9640   -1.1962 Br      1  LIG1       -0.0503
      2 BR         -4.0154    1.6720   -5.1010 Br      1  LIG1       -0.0472
      3 S           3.3931    0.6683   -3.1339 S.O2    1  LIG1        0.1104
      4 O          -0.5095    1.4862    0.7013 O.3     1  LIG1       -0.4724
      5 O           4.4774   -0.0450   -3.7640 O.2     1  LIG1       -0.1381
      6 O           2.0210    0.2793   -3.3632 O.2     1  LIG1       -0.1381
      7 O          -0.8814    4.0269   -0.6504 O.3     1  LIG1       -0.4590
      8 N           3.4951    2.2832   -3.5110 N.3     1  LIG1       -0.1771
      9 N           3.6981    0.6291   -1.4873 N.pl3   1  LIG1       -0.1889
     10 N           3.2618    2.5739   -0.3640 N.ar    1  LIG1       -0.2186
     11 N           1.2749    2.9859    0.8686 N.ar    1  LIG1       -0.2008
     12 N          -0.9583    3.1342   -2.7397 N.ar    1  LIG1       -0.2022
     13 N          -2.9547    3.2556   -1.4270 N.ar    1  LIG1       -0.2022
     14 C           4.7652    2.9974   -3.3414 C.3     1  LIG1        0.0185
     15 C           1.5615    0.8503   -0.2400 C.ar    1  LIG1        0.0848
     16 C           2.7913    1.3469   -0.6539 C.ar    1  LIG1        0.1532
     17 C           5.6683    2.7964   -4.5529 C.3     1  LIG1       -0.0416
     18 C           1.1080   -0.5315   -0.4733 C.ar    1  LIG1       -0.0094
     19 C           0.8137    1.7877    0.4655 C.ar    1  LIG1        0.2276
     20 C           6.7923    3.8196   -4.5811 C.3     1  LIG1       -0.0641
     21 C           1.8153   -1.6163    0.0797 C.ar    1  LIG1       -0.0527
     22 C          -0.0402   -0.8122   -1.2326 C.ar    1  LIG1       -0.0527
     23 C          -1.3470    2.4846    1.2856 C.3     1  LIG1        0.1252
     24 C           1.4042   -2.9342   -0.1400 C.ar    1  LIG1       -0.0472
     25 C          -0.4601   -2.1287   -1.4467 C.ar    1  LIG1       -0.0472
     26 C           2.4833    3.3244    0.4172 C.ar    1  LIG1        0.1219
     27 C          -1.3842    3.9003    0.6739 C.3     1  LIG1        0.1267
     28 C           0.2672   -3.1833   -0.9031 C.ar    1  LIG1        0.0179
     29 C          -1.6372    3.4299   -1.6200 C.ar    1  LIG1        0.3180
     30 C          -1.6804    2.6047   -3.7473 C.ar    1  LIG1        0.0483
     31 C          -3.6292    2.7350   -2.4758 C.ar    1  LIG1        0.0483
     32 C          -3.0361    2.3876   -3.6695 C.ar    1  LIG1        0.0543
     33 H           2.6770    2.7856   -3.1653 H       1  LIG1        0.1493
     34 H           3.7602   -0.3543   -1.2361 H       1  LIG1        0.1763
     35 H           5.2702    2.7070   -2.4155 H       1  LIG1        0.0442
     36 H           4.5174    4.0613   -3.2396 H       1  LIG1        0.0442
     37 H           5.0899    2.8723   -5.4813 H       1  LIG1        0.0275
     38 H           6.1055    1.7924   -4.5327 H       1  LIG1        0.0275
     39 H           6.3932    4.8316   -4.7048 H       1  LIG1        0.0230
     40 H           7.4679    3.6181   -5.4182 H       1  LIG1        0.0230
     41 H           7.3756    3.7900   -3.6555 H       1  LIG1        0.0230
     42 H           2.6927   -1.4450    0.7015 H       1  LIG1        0.0624
     43 H          -0.6104    0.0005   -1.6804 H       1  LIG1        0.0624
     44 H          -1.1429    2.5425    2.3620 H       1  LIG1        0.0731
     45 H          -2.3627    2.0764    1.2116 H       1  LIG1        0.0731
     46 H           1.9726   -3.7541    0.2914 H       1  LIG1        0.0629
     47 H          -1.3487   -2.3156   -2.0435 H       1  LIG1        0.0629
     48 H           2.8585    4.3026    0.6974 H       1  LIG1        0.1049
     49 H          -2.3851    4.3421    0.7702 H       1  LIG1        0.0732
     50 H          -0.7512    4.5468    1.2947 H       1  LIG1        0.0732
     51 H          -1.1102    2.3631   -4.6397 H       1  LIG1        0.0843
     52 H          -4.6963    2.6105   -2.3160 H       1  LIG1        0.0843
@<TRIPOS>BOND
     1     1    28    1
     2     2    32    1
     3     3     5    2
     4     3     6    2
     5     3     8    1
     6     3     9    1
     7     4    19    1
     8     4    23    1
     9     7    27    1
    10     7    29    1
    11     8    14    1
    12     9    16    1
    13    10    16   ar
    14    10    26   ar
    15    11    19   ar
    16    11    26   ar
    17    12    29   ar
    18    12    30   ar
    19    13    29   ar
    20    13    31   ar
    21    14    17    1
    22    15    16   ar
    23    15    18    1
    24    15    19   ar
    25    17    20    1
    26    18    21   ar
    27    18    22   ar
    28    21    24   ar
    29    22    25   ar
    30    23    27    1
    31    24    28   ar
    32    25    28   ar
    33    30    32   ar
    34    31    32   ar
    35     8    33    1
    36     9    34    1
    37    14    35    1
    38    14    36    1
    39    17    37    1
    40    17    38    1
    41    20    39    1
    42    20    40    1
    43    20    41    1
    44    21    42    1
    45    22    43    1
    46    23    44    1
    47    23    45    1
    48    24    46    1
    49    25    47    1
    50    26    48    1
    51    27    49    1
    52    27    50    1
    53    30    51    1
    54    31    52    1
@<TRIPOS>MOLECULE
16004692
 52 54 0 0 0
SMALL
GASTEIGER

@<TRIPOS>ATOM
      1 BR         -0.0006   -5.0011   -0.7900 Br      1  LIG1       -0.0503
      2 BR         -1.2973    0.4005   -5.5208 Br      1  LIG1       -0.0472
      3 S           3.5274    0.5084   -2.7271 S.O2    1  LIG1        0.1104
      4 O          -0.1092    1.4871    1.6537 O.3     1  LIG1       -0.4724
      5 O           4.5755   -0.3124   -3.2831 O.2     1  LIG1       -0.1381
      6 O           2.1406    0.1825   -2.9497 O.2     1  LIG1       -0.1381
      7 O          -0.4978    3.6943   -0.6442 O.3     1  LIG1       -0.4590
      8 N           3.7460    2.0874   -3.2121 N.3     1  LIG1       -0.1771
      9 N           3.8131    0.5694   -1.0842 N.pl3   1  LIG1       -0.1889
     10 N           3.3578    2.6059   -0.1562 N.ar    1  LIG1       -0.2186
     11 N           1.4918    3.0434    1.2384 N.ar    1  LIG1       -0.2008
     12 N           0.2302    3.0033   -2.6910 N.ar    1  LIG1       -0.2022
     13 N          -1.9186    2.3116   -1.9047 N.ar    1  LIG1       -0.2022
     14 C           5.0553    2.7245   -2.9921 C.3     1  LIG1        0.0185
     15 C           1.7337    0.8403    0.2493 C.ar    1  LIG1        0.0848
     16 C           2.9123    1.3442   -0.2976 C.ar    1  LIG1        0.1532
     17 C           5.7890    2.9349   -4.3144 C.3     1  LIG1       -0.0416
     18 C           1.2857   -0.5528    0.0707 C.ar    1  LIG1       -0.0094
     19 C           1.0439    1.7974    0.9859 C.ar    1  LIG1        0.2276
     20 C           6.6224    1.7325   -4.7331 C.3     1  LIG1       -0.0641
     21 C           2.0490   -1.6340    0.5474 C.ar    1  LIG1       -0.0527
     22 C           0.1127   -0.8506   -0.6428 C.ar    1  LIG1       -0.0527
     23 C          -1.3081    1.9894    1.0384 C.3     1  LIG1        0.1252
     24 C           1.6725   -2.9567    0.2860 C.ar    1  LIG1       -0.0472
     25 C          -0.2843   -2.1692   -0.8827 C.ar    1  LIG1       -0.0472
     26 C           2.6201    3.3959    0.6246 C.ar    1  LIG1        0.1219
     27 C          -1.3450    3.4285    0.4776 C.3     1  LIG1        0.1267
     28 C           0.5059   -3.2175   -0.4270 C.ar    1  LIG1        0.0179
     29 C          -0.7658    2.9920   -1.7901 C.ar    1  LIG1        0.3180
     30 C           0.0361    2.2446   -3.7929 C.ar    1  LIG1        0.0483
     31 C          -2.0520    1.5667   -3.0253 C.ar    1  LIG1        0.0483
     32 C          -1.0915    1.4880   -4.0065 C.ar    1  LIG1        0.0543
     33 H           2.9594    2.6606   -2.8953 H       1  LIG1        0.1493
     34 H           3.8832   -0.3947   -0.7711 H       1  LIG1        0.1763
     35 H           5.6720    2.1751   -2.2747 H       1  LIG1        0.0442
     36 H           4.8572    3.7060   -2.5438 H       1  LIG1        0.0442
     37 H           6.4710    3.7857   -4.1984 H       1  LIG1        0.0275
     38 H           5.0883    3.1928   -5.1172 H       1  LIG1        0.0275
     39 H           7.2899    1.4147   -3.9252 H       1  LIG1        0.0230
     40 H           7.2424    1.9866   -5.5987 H       1  LIG1        0.0230
     41 H           5.9916    0.8876   -5.0184 H       1  LIG1        0.0230
     42 H           2.9588   -1.4592    1.1194 H       1  LIG1        0.0624
     43 H          -0.4913   -0.0512   -1.0599 H       1  LIG1        0.0624
     44 H          -2.0638    1.9491    1.8330 H       1  LIG1        0.0731
     45 H          -1.6352    1.2587    0.2978 H       1  LIG1        0.0731
     46 H           2.2976   -3.7737    0.6373 H       1  LIG1        0.0629
     47 H          -1.1950   -2.3609   -1.4440 H       1  LIG1        0.0629
     48 H           2.9674    4.4117    0.7766 H       1  LIG1        0.1049
     49 H          -2.3751    3.7111    0.2256 H       1  LIG1        0.0732
     50 H          -1.0245    4.1175    1.2679 H       1  LIG1        0.0732
     51 H           0.8571    2.2481   -4.5049 H       1  LIG1        0.0843
     52 H          -2.9797    1.0062   -3.0950 H       1  LIG1        0.0843
@<TRIPOS>BOND
     1     1    28    1
     2     2    32    1
     3     3     5    2
     4     3     6    2
     5     3     8    1
     6     3     9    1
     7     4    19    1
     8     4    23    1
     9     7    27    1
    10     7    29    1
    11     8    14    1
    12     9    16    1
    13    10    16   ar
    14    10    26   ar
    15    11    19   ar
    16    11    26   ar
    17    12    29   ar
    18    12    30   ar
    19    13    29   ar
    20    13    31   ar
    21    14    17    1
    22    15    16   ar
    23    15    18    1
    24    15    19   ar
    25    17    20    1
    26    18    21   ar
    27    18    22   ar
    28    21    24   ar
    29    22    25   ar
    30    23    27    1
    31    24    28   ar
    32    25    28   ar
    33    30    32   ar
    34    31    32   ar
    35     8    33    1
    36     9    34    1
    37    14    35    1
    38    14    36    1
    39    17    37    1
    40    17    38    1
    41    20    39    1
    42    20    40    1
    43    20    41    1
    44    21    42    1
    45    22    43    1
    46    23    44    1
    47    23    45    1
    48    24    46    1
    49    25    47    1
    50    26    48    1
    51    27    49    1
    52    27    50    1
    53    30    51    1
    54    31    52    1
@<TRIPOS>MOLECULE
16004692
 52 54 0 0 0
SMALL
GASTEIGER

@<TRIPOS>ATOM
      1 BR         -0.0648   -5.0071   -1.1444 Br      1  LIG1       -0.0503
      2 BR          0.6760   -0.0104   -3.9644 Br      1  LIG1       -0.0472
      3 S           4.6505   -0.1740    0.5641 S.O2    1  LIG1        0.1104
      4 O          -0.8684    1.4171    1.0085 O.3     1  LIG1       -0.4724
      5 O           5.0996   -1.4345    0.0005 O.2     1  LIG1       -0.1381
      6 O           5.6246    0.7818   -0.1427 O.2     1  LIG1       -0.1381
      7 O          -1.1858    4.0699   -0.3849 O.3     1  LIG1       -0.4590
      8 N           4.1460    0.0853    1.4866 N.3     1  LIG1       -0.1771
      9 N           3.6211    0.5826   -1.1958 N.pl3   1  LIG1       -0.1889
     10 N           3.5011    2.7235    0.0652 N.ar    1  LIG1       -0.2186
     11 N           0.6649    2.5339    0.8641 N.ar    1  LIG1       -0.2008
     12 N           0.0591    3.2265   -2.7392 N.ar    1  LIG1       -0.2022
     13 N          -0.9944    2.4840   -1.6118 N.ar    1  LIG1       -0.2022
     14 C           2.3113   -1.2555    1.5050 C.3     1  LIG1        0.0185
     15 C           1.9213    0.9132   -0.3931 C.ar    1  LIG1        0.0848
     16 C           2.5679    1.4252   -0.6892 C.ar    1  LIG1        0.1532
     17 C           3.2547   -2.6118    0.9016 C.3     1  LIG1       -0.0416
     18 C           0.9940   -0.4850   -0.5706 C.ar    1  LIG1       -0.0094
     19 C           0.4003    1.8231    0.6851 C.ar    1  LIG1        0.2276
     20 C           3.4631   -3.0967   -1.5831 C.3     1  LIG1       -0.0641
     21 C           1.9883   -1.4555   -0.4463 C.ar    1  LIG1       -0.0527
     22 C          -0.3159   -0.8626   -0.2659 C.ar    1  LIG1       -0.0527
     23 C          -1.7560    2.4175    0.8925 C.3     1  LIG1        0.1252
     24 C           1.6728   -2.8033   -1.2175 C.ar    1  LIG1       -0.0472
     25 C          -0.6315   -2.2105   -1.0372 C.ar    1  LIG1       -0.0472
     26 C           2.5163    3.5105    0.5388 C.ar    1  LIG1        0.1219
     27 C          -1.0297    3.7484    0.9278 C.3     1  LIG1        0.1267
     28 C           0.3628   -3.7808   -1.5130 C.ar    1  LIG1        0.0179
     29 C          -0.8957    3.6177   -1.2129 C.ar    1  LIG1        0.3180
     30 C           0.9210    2.1691   -3.3625 C.ar    1  LIG1        0.0483
     31 C          -0.6819    0.8680   -1.8426 C.ar    1  LIG1        0.0483
     32 C          -0.3241    0.9537   -3.4325 C.ar    1  LIG1        0.0543
     33 H           3.8645    0.9779    2.2484 H       1  LIG1        0.1493
     34 H           3.7480    0.4444   -2.1623 H       1  LIG1        0.1763
     35 H           2.3423   -0.6887    0.7979 H       1  LIG1        0.0442
     36 H           1.7416   -0.9354    1.7980 H       1  LIG1        0.0442
     37 H           1.7441   -3.7313    0.6874 H       1  LIG1        0.0275
     38 H           3.8539   -3.1395    1.6138 H       1  LIG1        0.0275
     39 H           2.8905   -2.5720   -2.3191 H       1  LIG1        0.0230
     40 H           4.2983   -4.0756   -1.9455 H       1  LIG1        0.0230
     41 H           4.3689   -1.9615   -0.7879 H       1  LIG1        0.0230
     42 H           2.9574   -1.1762   -0.8276 H       1  LIG1        0.0624
     43 H          -1.0516   -0.7448   -0.3577 H       1  LIG1        0.0624
     44 H          -2.0822    2.1608    1.8787 H       1  LIG1        0.0731
     45 H          -2.6071    2.8157    0.2478 H       1  LIG1        0.0731
     46 H           2.4084   -3.5212   -1.1256 H       1  LIG1        0.0629
     47 H          -1.6006   -2.4898   -1.2558 H       1  LIG1        0.0629
     48 H           2.1450    4.5088    0.0660 H       1  LIG1        0.1049
     49 H          -2.2942    5.1104    1.2782 H       1  LIG1        0.0732
     50 H          -0.1896    4.2839    1.5873 H       1  LIG1        0.0732
     51 H           1.6451    2.2755   -3.6629 H       1  LIG1        0.0843
     52 H          -1.1881    0.5756   -2.3316 H       1  LIG1        0.0843
@<TRIPOS>BOND
     1     1    28    1
     2     2    32    1
     3     3     5    2
     4     3     6    2
     5     3     8    1
     6     3     9    1
     7     4    19    1
     8     4    23    1
     9     7    27    1
    10     7    29    1
    11     8    14    1
    12     9    16    1
    13    10    16   ar
    14    10    26   ar
    15    11    19   ar
    16    11    26   ar
    17    12    29   ar
    18    12    30   ar
    19    13    29   ar
    20    13    31   ar
    21    14    17    1
    22    15    16   ar
    23    15    18    1
    24    15    19   ar
    25    17    20    1
    26    18    21   ar
    27    18    22   ar
    28    21    24   ar
    29    22    25   ar
    30    23    27    1
    31    24    28   ar
    32    25    28   ar
    33    30    32   ar
    34    31    32   ar
    35     8    33    1
    36     9    34    1
    37    14    35    1
    38    14    36    1
    39    17    37    1
    40    17    38    1
    41    20    39    1
    42    20    40    1
    43    20    41    1
    44    21    42    1
    45    22    43    1
    46    23    44    1
    47    23    45    1
    48    24    46    1
    49    25    47    1
    50    26    48    1
    51    27    49    1
    52    27    50    1
    53    30    51    1
    54    31    52    1
@<TRIPOS>MOLECULE
16004692
 52 54 0 0 0
SMALL
GASTEIGER

@<TRIPOS>ATOM
      1 BR         -0.3852   -5.1898   -0.8276 Br      1  LIG1       -0.0503
      2 BR          0.2157    5.9685    2.8263 Br      1  LIG1       -0.0472
      3 S           5.2505    0.4260   -0.0359 S.O2    1  LIG1        0.1104
      4 O          -0.8684    1.4171   -0.1915 O.3     1  LIG1       -0.4724
      5 O           4.2008   -0.3696    1.2841 O.2     1  LIG1       -0.1381
      6 O           5.3924   -0.9841   -0.3474 O.2     1  LIG1       -0.1381
      7 O           1.2137   -0.4536    1.7491 O.3     1  LIG1       -0.4590
      8 N           6.1603    0.5947   -0.9535 N.3     1  LIG1       -0.1771
      9 N           3.6211    0.5826   -1.1958 N.pl3   1  LIG1       -0.1889
     10 N           2.9011    2.7235    0.0652 N.ar    1  LIG1       -0.2186
     11 N           0.6649    3.1339   -0.3359 N.ar    1  LIG1       -0.2008
     12 N           2.0459    1.6726    2.7035 N.ar    1  LIG1       -0.2022
     13 N          -0.3015    1.8903    2.3146 N.ar    1  LIG1       -0.2022
     14 C           6.1892    2.0734   -0.3652 C.3     1  LIG1        0.0185
     15 C           1.3213    0.9132   -0.9931 C.ar    1  LIG1        0.0848
     16 C           2.5679    1.4252   -0.0892 C.ar    1  LIG1        0.1532
     17 C           5.2613    2.6136   -1.4463 C.3     1  LIG1       -0.0416
     18 C           0.9964   -0.4838   -1.1753 C.ar    1  LIG1       -0.0094
     19 C           0.4003    1.8231    0.0851 C.ar    1  LIG1        0.2276
     20 C           5.7607    2.1557   -2.8434 C.3     1  LIG1       -0.0641
     21 C           1.9883   -1.4555   -1.0463 C.ar    1  LIG1       -0.0527
     22 C          -0.3159   -0.8627   -1.4660 C.ar    1  LIG1       -0.0527
     23 C          -1.0132   -0.2968    0.8726 C.3     1  LIG1        0.1252
     24 C           1.6728   -2.8033   -0.6175 C.ar    1  LIG1       -0.0472
     25 C          -0.6315   -2.8105   -1.6372 C.ar    1  LIG1       -0.0472
     26 C           1.9163    3.5105   -0.6612 C.ar    1  LIG1        0.1219
     27 C           0.3483   -0.5873    1.4909 C.3     1  LIG1        0.1267
     28 C           0.3628   -3.7049   -1.5130 C.ar    1  LIG1        0.0179
     29 C           1.5764    1.4911    2.4612 C.ar    1  LIG1        0.3180
     30 C           1.7764    3.5908    2.8054 C.ar    1  LIG1        0.0483
     31 C          -0.4988    3.8201    1.8286 C.ar    1  LIG1        0.0483
     32 C          -0.0883    4.1269    2.6760 C.ar    1  LIG1        0.0543
     33 H           6.4776   -0.3235   -0.6692 H       1  LIG1        0.1493
     34 H           3.1771    0.4444   -2.1623 H       1  LIG1        0.1763
     35 H           7.1878    2.4051   -0.7834 H       1  LIG1        0.0442
     36 H           6.1029    2.4347    0.5869 H       1  LIG1        0.0442
     37 H           5.2875    3.6829   -1.4619 H       1  LIG1        0.0275
     38 H           4.2802    2.2355   -1.2480 H       1  LIG1        0.0275
     39 H           6.6361    2.5183   -3.0739 H       1  LIG1        0.0230
     40 H           4.9567    2.5406   -3.5558 H       1  LIG1        0.0230
     41 H           5.6531    1.0865   -2.8824 H       1  LIG1        0.0230
     42 H           2.9574   -1.1762    0.3724 H       1  LIG1        0.0624
     43 H          -1.0516   -0.1448   -1.5577 H       1  LIG1        0.0624
     44 H          -1.6675   -0.4573    0.8187 H       1  LIG1        0.0731
     45 H          -2.0270    0.0837    2.4594 H       1  LIG1        0.0731
     46 H           2.4084   -3.5212   -0.5256 H       1  LIG1        0.0629
     47 H          -1.6006   -2.4898   -1.2558 H       1  LIG1        0.0629
     48 H           2.1450    4.5088   -0.5340 H       1  LIG1        0.1049
     49 H           0.2512   -2.1899    1.8517 H       1  LIG1        0.0732
     50 H           0.1515   -1.2088    0.5056 H       1  LIG1        0.0732
     51 H           2.5612    4.2348    2.3908 H       1  LIG1        0.0843
     52 H          -1.4605    3.5798    1.7247 H       1  LIG1        0.0843
@<TRIPOS>BOND
     1     1    28    1
     2     2    32    1
     3     3     5    2
     4     3     6    2
     5     3     8    1
     6     3     9    1
     7     4    19    1
     8     4    23    1
     9     7    27    1
    10     7    29    1
    11     8    14    1
    12     9    16    1
    13    10    16   ar
    14    10    26   ar
    15    11    19   ar
    16    11    26   ar
    17    12    29   ar
    18    12    30   ar
    19    13    29   ar
    20    13    31   ar
    21    14    17    1
    22    15    16   ar
    23    15    18    1
    24    15    19   ar
    25    17    20    1
    26    18    21   ar
    27    18    22   ar
    28    21    24   ar
    29    22    25   ar
    30    23    27    1
    31    24    28   ar
    32    25    28   ar
    33    30    32   ar
    34    31    32   ar
    35     8    33    1
    36     9    34    1
    37    14    35    1
    38    14    36    1
    39    17    37    1
    40    17    38    1
    41    20    39    1
    42    20    40    1
    43    20    41    1
    44    21    42    1
    45    22    43    1
    46    23    44    1
    47    23    45    1
    48    24    46    1
    49    25    47    1
    50    26    48    1
    51    27    49    1
    52    27    50    1
    53    30    51    1
    54    31    52    1
@<TRIPOS>MOLECULE
16004692
 52 54 0 0 0
SMALL
GASTEIGER

@<TRIPOS>ATOM
      1 BR         -0.3855   -5.1910   -0.8263 Br      1  LIG1       -0.0503
      2 BR         -0.8933    4.9000    4.2441 Br      1  LIG1       -0.0472
      3 S           5.2505   -0.1740   -0.0359 S.O2    1  LIG1        0.1104
      4 O          -0.8684    1.4171    0.4085 O.3     1  LIG1       -0.4724
      5 O           4.2008    0.5191    1.2841 O.2     1  LIG1       -0.1381
      6 O           4.7924   -0.9841   -0.3474 O.2     1  LIG1       -0.1381
      7 O           1.2137   -0.4536    1.7490 O.3     1  LIG1       -0.4590
      8 N           6.1603    0.5947   -0.9535 N.3     1  LIG1       -0.1771
      9 N           3.6211    0.5826   -1.1958 N.pl3   1  LIG1       -0.1889
     10 N           2.9011    2.7235    0.0652 N.ar    1  LIG1       -0.2186
     11 N           0.6649    3.7339    0.2641 N.ar    1  LIG1       -0.2008
     12 N          -0.6038    1.5331    2.0846 N.ar    1  LIG1       -0.2022
     13 N           1.5063    1.6983    3.1749 N.ar    1  LIG1       -0.2022
     14 C           6.1892    2.0734   -0.3652 C.3     1  LIG1        0.0185
     15 C           1.3213    0.9132   -0.9931 C.ar    1  LIG1        0.0848
     16 C           2.5679    1.4252   -0.0892 C.ar    1  LIG1        0.1532
     17 C           5.2613    2.6136   -1.4463 C.3     1  LIG1       -0.0416
     18 C           0.9942   -0.4849   -1.1711 C.ar    1  LIG1       -0.0094
     19 C           0.4003    2.4231    0.0851 C.ar    1  LIG1        0.2276
     20 C           5.7630    2.1557   -2.8434 C.3     1  LIG1       -0.0641
     21 C           1.9883   -1.4555   -1.0463 C.ar    1  LIG1       -0.0527
     22 C          -0.3159   -0.8626   -1.0383 C.ar    1  LIG1       -0.0527
     23 C          -1.0132    0.0804    0.8726 C.3     1  LIG1        0.1252
     24 C           1.6728   -2.8033   -0.6175 C.ar    1  LIG1       -0.0472
     25 C          -0.6315   -2.8105   -1.6372 C.ar    1  LIG1       -0.0472
     26 C           1.9163    3.5105   -0.6612 C.ar    1  LIG1        0.1219
     27 C           0.3483   -0.5873    1.4909 C.3     1  LIG1        0.1267
     28 C           0.3628   -3.7026   -1.5130 C.ar    1  LIG1        0.0179
     29 C           0.6839    1.2521    2.9603 C.ar    1  LIG1        0.3180
     30 C          -1.0935    2.6266    2.7052 C.ar    1  LIG1        0.0483
     31 C           0.9519    3.0216    3.7618 C.ar    1  LIG1        0.0483
     32 C          -0.3553    3.4167    3.5623 C.ar    1  LIG1        0.0543
     33 H           6.4776   -0.3235   -0.6692 H       1  LIG1        0.1493
     34 H           3.1655    0.4444   -2.1623 H       1  LIG1        0.1763
     35 H           7.1878    2.4051   -0.7838 H       1  LIG1        0.0442
     36 H           6.1108    2.4347    0.5869 H       1  LIG1        0.0442
     37 H           5.2875    3.6829   -1.4650 H       1  LIG1        0.0275
     38 H           4.2802    2.2355   -1.2480 H       1  LIG1        0.0275
     39 H           6.6361    2.5183   -3.0739 H       1  LIG1        0.0230
     40 H           4.9567    2.5406   -3.5558 H       1  LIG1        0.0230
     41 H           5.6531    1.0865   -2.8824 H       1  LIG1        0.0230
     42 H           2.9574   -1.1762    0.3724 H       1  LIG1        0.0624
     43 H          -1.0516   -0.1448   -1.5577 H       1  LIG1        0.0624
     44 H          -2.2675   -0.4573    0.2187 H       1  LIG1        0.0731
     45 H          -2.0270    0.0837    2.4594 H       1  LIG1        0.0731
     46 H           2.4084   -3.5212   -0.5256 H       1  LIG1        0.0629
     47 H          -1.6006   -2.4898   -1.2558 H       1  LIG1        0.0629
     48 H           2.1450    4.5088    0.0660 H       1  LIG1        0.1049
     49 H           0.2512   -2.1899    1.8517 H       1  LIG1        0.0732
     50 H           0.1536   -1.2077    0.5014 H       1  LIG1        0.0732
     51 H          -2.0764    2.8869    2.5286 H       1  LIG1        0.0843
     52 H           1.5389    3.5853    4.3963 H       1  LIG1        0.0843
@<TRIPOS>BOND
     1     1    28    1
     2     2    32    1
     3     3     5    2
     4     3     6    2
     5     3     8    1
     6     3     9    1
     7     4    19    1
     8     4    23    1
     9     7    27    1
    10     7    29    1
    11     8    14    1
    12     9    16    1
    13    10    16   ar
    14    10    26   ar
    15    11    19   ar
    16    11    26   ar
    17    12    29   ar
    18    12    30   ar
    19    13    29   ar
    20    13    31   ar
    21    14    17    1
    22    15    16   ar
    23    15    18    1
    24    15    19   ar
    25    17    20    1
    26    18    21   ar
    27    18    22   ar
    28    21    24   ar
    29    22    25   ar
    30    23    27    1
    31    24    28   ar
    32    25    28   ar
    33    30    32   ar
    34    31    32   ar
    35     8    33    1
    36     9    34    1
    37    14    35    1
    38    14    36    1
    39    17    37    1
    40    17    38    1
    41    20    39    1
    42    20    40    1
    43    20    41    1
    44    21    42    1
    45    22    43    1
    46    23    44    1
    47    23    45    1
    48    24    46    1
    49    25    47    1
    50    26    48    1
    51    27    49    1
    52    27    50    1
    53    30    51    1
    54    31    52    1
@<TRIPOS>MOLECULE
16004692
 52 54 0 0 0
SMALL
GASTEIGER

@<TRIPOS>ATOM
      1 BR         -0.3576   -5.1537   -1.3763 Br      1  LIG1       -0.0503
      2 BR         -0.8836    4.8716    4.2524 Br      1  LIG1       -0.0472
      3 S           3.7308    1.0036   -3.5085 S.O2    1  LIG1        0.1104
      4 O          -0.8684    1.5821    0.1779 O.3     1  LIG1       -0.4724
      5 O           3.2679    1.4658   -3.8956 O.2     1  LIG1       -0.1381
      6 O           5.1025    0.0019   -2.7386 O.2     1  LIG1       -0.1381
      7 O           1.8137    0.1464    2.3490 O.3     1  LIG1       -0.4590
      8 N           3.3463   -1.0643   -3.3505 N.3     1  LIG1       -0.1771
      9 N           4.1667    0.5826   -1.1958 N.pl3   1  LIG1       -0.1889
     10 N           2.3014    2.7235    0.0652 N.ar    1  LIG1       -0.2186
     11 N           0.6649    3.7339    0.2641 N.ar    1  LIG1       -0.2008
     12 N          -0.6038    1.5331    2.0846 N.ar    1  LIG1       -0.2022
     13 N           1.5063    1.6104    3.7416 N.ar    1  LIG1       -0.2022
     14 C           2.0966   -1.4857   -3.0961 C.3     1  LIG1        0.0185
     15 C           1.9213    0.9132   -0.3931 C.ar    1  LIG1        0.0848
     16 C           3.1679    1.4252   -0.6892 C.ar    1  LIG1        0.1532
     17 C           0.7246   -1.0038   -3.6490 C.3     1  LIG1       -0.0416
     18 C           0.9940    0.1150   -0.5706 C.ar    1  LIG1       -0.0094
     19 C           0.4003    2.4116    0.0851 C.ar    1  LIG1        0.2276
     20 C           0.3606    0.4905   -2.7660 C.3     1  LIG1       -0.0641
     21 C           1.9558   -1.3703   -0.6267 C.ar    1  LIG1       -0.0527
     22 C          -0.2833   -1.5375   -0.8546 C.ar    1  LIG1       -0.0527
     23 C          -1.0132    0.0804    0.9542 C.3     1  LIG1        0.1252
     24 C           1.6402   -2.7180   -0.6288 C.ar    1  LIG1       -0.0472
     25 C          -0.5990   -2.2957   -0.4258 C.ar    1  LIG1       -0.0472
     26 C           1.9163    3.5105   -0.6612 C.ar    1  LIG1        0.1219
     27 C           0.3483   -0.5873    1.4819 C.3     1  LIG1        0.1267
     28 C           0.3628   -3.7808   -0.3129 C.ar    1  LIG1        0.0179
     29 C           0.6839    0.7612    2.3603 C.ar    1  LIG1        0.3180
     30 C          -1.0935    2.6266    2.7052 C.ar    1  LIG1        0.0483
     31 C           0.9519    3.0216    3.7618 C.ar    1  LIG1        0.0483
     32 C          -0.3553    3.4167    3.5623 C.ar    1  LIG1        0.0543
     33 H           4.3065   -1.4080   -3.1558 H       1  LIG1        0.1493
     34 H           4.2511    0.3606   -0.5908 H       1  LIG1        0.1763
     35 H           2.7450   -2.0699   -2.0365 H       1  LIG1        0.0442
     36 H           2.2719   -2.5560   -3.2822 H       1  LIG1        0.0442
     37 H          -0.0395   -1.3983   -3.0103 H       1  LIG1        0.0275
     38 H           0.6278   -1.1314   -4.2652 H       1  LIG1        0.0275
     39 H           0.3629    0.8209   -2.3085 H       1  LIG1        0.0230
     40 H           0.0663    0.9730   -3.4648 H       1  LIG1        0.0230
     41 H           1.8506    0.6570   -3.0817 H       1  LIG1        0.0230
     42 H           2.9009   -1.0279   -0.6913 H       1  LIG1        0.0624
     43 H          -0.9949   -0.2931    0.1059 H       1  LIG1        0.0624
     44 H          -2.1177   -0.4573    0.8187 H       1  LIG1        0.0731
     45 H          -1.7316    0.0837    2.1247 H       1  LIG1        0.0731
     46 H           2.3518   -3.4549   -1.0622 H       1  LIG1        0.0629
     47 H          -1.5440   -2.6381   -0.1921 H       1  LIG1        0.0629
     48 H           2.1450    4.5088    0.0660 H       1  LIG1        0.1049
     49 H           0.5225   -1.5899    1.4275 H       1  LIG1        0.0732
     50 H           0.7538   -0.6076    0.5009 H       1  LIG1        0.0732
     51 H          -2.0764    2.9040    2.5286 H       1  LIG1        0.0843
     52 H           1.5389    3.5853    4.3963 H       1  LIG1        0.0843
@<TRIPOS>BOND
     1     1    28    1
     2     2    32    1
     3     3     5    2
     4     3     6    2
     5     3     8    1
     6     3     9    1
     7     4    19    1
     8     4    23    1
     9     7    27    1
    10     7    29    1
    11     8    14    1
    12     9    16    1
    13    10    16   ar
    14    10    26   ar
    15    11    19   ar
    16    11    26   ar
    17    12    29   ar
    18    12    30   ar
    19    13    29   ar
    20    13    31   ar
    21    14    17    1
    22    15    16   ar
    23    15    18    1
    24    15    19   ar
    25    17    20    1
    26    18    21   ar
    27    18    22   ar
    28    21    24   ar
    29    22    25   ar
    30    23    27    1
    31    24    28   ar
    32    25    28   ar
    33    30    32   ar
    34    31    32   ar
    35     8    33    1
    36     9    34    1
    37    14    35    1
    38    14    36    1
    39    17    37    1
    40    17    38    1
    41    20    39    1
    42    20    40    1
    43    20    41    1
    44    21    42    1
    45    22    43    1
    46    23    44    1
    47    23    45    1
    48    24    46    1
    49    25    47    1
    50    26    48    1
    51    27    49    1
    52    27    50    1
    53    30    51    1
    54    31    52    1
@<TRIPOS>MOLECULE
16004692
 52 54 0 0 0
SMALL
GASTEIGER

@<TRIPOS>ATOM
      1 BR         -0.1355   -5.4995   -0.8699 Br      1  LIG1       -0.0503
      2 BR         -1.4647   -2.1086   -3.5875 Br      1  LIG1       -0.0472
      3 S           4.0442    0.4037   -2.9085 S.O2    1  LIG1        0.1104
      4 O          -0.8684    1.8656    0.8361 O.3     1  LIG1       -0.4724
      5 O           2.6679    1.1932   -4.1042 O.2     1  LIG1       -0.1381
      6 O           5.1025    0.0019   -2.9361 O.2     1  LIG1       -0.1381
      7 O          -1.1257    3.4403   -1.4923 O.3     1  LIG1       -0.4590
      8 N           3.3762   -1.2643   -3.1541 N.3     1  LIG1       -0.1771
      9 N           4.1423    0.5826   -1.1958 N.pl3   1  LIG1       -0.1889
     10 N           3.0396    2.7235    0.0652 N.ar    1  LIG1       -0.2186
     11 N           1.2650    3.1339    0.8641 N.ar    1  LIG1       -0.2008
     12 N          -1.3545    1.2521   -1.2132 N.ar    1  LIG1       -0.2022
     13 N          -0.1074    1.9391   -3.1573 N.ar    1  LIG1       -0.2022
     14 C           2.6966   -1.7610   -2.8976 C.3     1  LIG1        0.0185
     15 C           1.9213    0.9132   -0.2294 C.ar    1  LIG1        0.0848
     16 C           2.5679    1.4252   -1.2892 C.ar    1  LIG1        0.1532
     17 C           0.8957   -1.0039   -3.0491 C.3     1  LIG1       -0.0416
     18 C           0.8344   -0.4850   -0.5706 C.ar    1  LIG1       -0.0094
     19 C           0.4003    1.8231    0.0851 C.ar    1  LIG1        0.2276
     20 C           0.7586   -1.1396   -4.9068 C.3     1  LIG1       -0.0641
     21 C           1.9207   -1.3239   -0.6515 C.ar    1  LIG1       -0.0527
     22 C          -0.2833   -0.9479    0.3455 C.ar    1  LIG1       -0.0527
     23 C          -1.9050    2.3798    0.3693 C.3     1  LIG1        0.1252
     24 C           1.6400   -2.7185   -0.6285 C.ar    1  LIG1       -0.0472
     25 C          -0.5989   -2.2957    0.1742 C.ar    1  LIG1       -0.0472
     26 C           1.7032    3.5105   -0.0612 C.ar    1  LIG1        0.1219
     27 C          -1.3061    3.6811   -0.2441 C.3     1  LIG1        0.1267
     28 C           0.3628   -3.7808   -0.9129 C.ar    1  LIG1        0.0179
     29 C          -1.3106    2.5821   -1.9732 C.ar    1  LIG1        0.3180
     30 C          -1.9808    0.0011   -2.3177 C.ar    1  LIG1        0.0483
     31 C          -0.4379    1.1784   -3.6021 C.ar    1  LIG1        0.0483
     32 C          -1.2394   -0.3533   -3.5184 C.ar    1  LIG1        0.0543
     33 H           4.3170   -1.3781   -3.1579 H       1  LIG1        0.1493
     34 H           4.2511    0.3229   -0.5907 H       1  LIG1        0.1763
     35 H           2.7799   -1.8596   -2.1068 H       1  LIG1        0.0442
     36 H           2.4670   -2.6133   -3.2083 H       1  LIG1        0.0442
     37 H           1.1171   -0.3125   -2.8071 H       1  LIG1        0.0275
     38 H           0.5266   -1.6519   -2.6060 H       1  LIG1        0.0275
     39 H           1.9037   -0.9601   -5.4325 H       1  LIG1        0.0230
     40 H          -0.1135   -1.0880   -5.2607 H       1  LIG1        0.0230
     41 H           1.0385   -2.5515   -5.1802 H       1  LIG1        0.0230
     42 H           2.9013   -1.0277   -0.6912 H       1  LIG1        0.0624
     43 H          -0.9949   -0.8931    0.3161 H       1  LIG1        0.0624
     44 H          -2.6041    2.5549    1.5721 H       1  LIG1        0.0731
     45 H          -2.9694    2.0924   -0.1115 H       1  LIG1        0.0731
     46 H           2.3518   -3.4445   -1.0953 H       1  LIG1        0.0629
     47 H          -1.5441   -2.6601    0.0301 H       1  LIG1        0.0629
     48 H           2.1450    4.5088    0.0660 H       1  LIG1        0.1049
     49 H          -2.1424    4.4052   -0.5840 H       1  LIG1        0.0732
     50 H          -1.1920    4.0457    0.4631 H       1  LIG1        0.0732
     51 H          -1.9831   -0.7326   -1.7468 H       1  LIG1        0.0843
     52 H           0.4869    0.8560   -4.3286 H       1  LIG1        0.0843
@<TRIPOS>BOND
     1     1    28    1
     2     2    32    1
     3     3     5    2
     4     3     6    2
     5     3     8    1
     6     3     9    1
     7     4    19    1
     8     4    23    1
     9     7    27    1
    10     7    29    1
    11     8    14    1
    12     9    16    1
    13    10    16   ar
    14    10    26   ar
    15    11    19   ar
    16    11    26   ar
    17    12    29   ar
    18    12    30   ar
    19    13    29   ar
    20    13    31   ar
    21    14    17    1
    22    15    16   ar
    23    15    18    1
    24    15    19   ar
    25    17    20    1
    26    18    21   ar
    27    18    22   ar
    28    21    24   ar
    29    22    25   ar
    30    23    27    1
    31    24    28   ar
    32    25    28   ar
    33    30    32   ar
    34    31    32   ar
    35     8    33    1
    36     9    34    1
    37    14    35    1
    38    14    36    1
    39    17    37    1
    40    17    38    1
    41    20    39    1
    42    20    40    1
    43    20    41    1
    44    21    42    1
    45    22    43    1
    46    23    44    1
    47    23    45    1
    48    24    46    1
    49    25    47    1
    50    26    48    1
    51    27    49    1
    52    27    50    1
    53    30    51    1
    54    31    52    1
@<TRIPOS>MOLECULE
16004692
 52 54 0 0 0
SMALL
GASTEIGER

@<TRIPOS>ATOM
      1 BR         -0.3177   -5.1035   -0.9435 Br      1  LIG1       -0.0503
      2 BR         -1.3715   -1.9874   -4.4245 Br      1  LIG1       -0.0472
      3 S           4.7958   -0.1537   -0.0287 S.O2    1  LIG1        0.1104
      4 O          -0.6902    1.5118    0.4173 O.3     1  LIG1       -0.4724
      5 O           4.3127    0.0234    1.3190 O.2     1  LIG1       -0.1381
      6 O           5.1315   -1.4524   -0.5590 O.2     1  LIG1       -0.1381
      7 O          -0.9589    3.3205   -1.7942 O.3     1  LIG1       -0.4590
      8 N           6.1840    0.7428   -0.2491 N.3     1  LIG1       -0.1771
      9 N           3.7865    0.5721   -1.1347 N.pl3   1  LIG1       -0.1889
     10 N           3.1119    2.6347   -0.4907 N.ar    1  LIG1       -0.2186
     11 N           0.9942    3.1128    0.4499 N.ar    1  LIG1       -0.2008
     12 N          -2.2175    1.3643   -2.1548 N.ar    1  LIG1       -0.2022
     13 N          -0.1842    1.8169   -3.3289 N.ar    1  LIG1       -0.2022
     14 C           6.2650    2.1967   -0.0957 C.3     1  LIG1        0.0185
     15 C           1.4939    0.8193   -0.2284 C.ar    1  LIG1        0.0848
     16 C           2.7282    1.3468   -0.5930 C.ar    1  LIG1        0.1532
     17 C           5.9413    2.7062    1.3010 C.3     1  LIG1       -0.0416
     18 C           1.0799   -0.6128   -0.3950 C.ar    1  LIG1       -0.0094
     19 C           0.6460    1.8214    0.2458 C.ar    1  LIG1        0.2276
     20 C           6.9114    2.1978    2.3550 C.3     1  LIG1       -0.0641
     21 C           1.5714   -1.4290   -1.4320 C.ar    1  LIG1       -0.0527
     22 C           0.1587   -1.2236    0.4847 C.ar    1  LIG1       -0.0527
     23 C          -1.5666    2.6280    0.5737 C.3     1  LIG1        0.1252
     24 C           1.1819   -2.7660   -1.5829 C.ar    1  LIG1       -0.0472
     25 C          -0.2692   -2.5482    0.3173 C.ar    1  LIG1       -0.0472
     26 C           2.2183    3.4535    0.0617 C.ar    1  LIG1        0.1219
     27 C          -1.8124    3.5144   -0.6694 C.3     1  LIG1        0.1267
     28 C           0.2485   -3.3163   -0.7136 C.ar    1  LIG1        0.0179
     29 C          -1.1595    2.1377   -2.4638 C.ar    1  LIG1        0.3180
     30 C          -2.2477    0.1523   -2.7454 C.ar    1  LIG1        0.0483
     31 C          -0.2805    0.6015   -3.9037 C.ar    1  LIG1        0.0483
     32 C          -1.2956   -0.2870   -3.6348 C.ar    1  LIG1        0.0543
     33 H           6.7878    0.3244   -0.9556 H       1  LIG1        0.1493
     34 H           4.3144    1.0952   -1.8238 H       1  LIG1        0.1763
     35 H           5.6444    2.6860   -0.8518 H       1  LIG1        0.0442
     36 H           7.2941    2.4869   -0.3443 H       1  LIG1        0.0442
     37 H           4.9196    2.4502    1.5936 H       1  LIG1        0.0275
     38 H           5.9891    3.8018    1.2854 H       1  LIG1        0.0275
     39 H           6.8587    1.1103    2.4549 H       1  LIG1        0.0230
     40 H           6.6710    2.6387    3.3273 H       1  LIG1        0.0230
     41 H           7.9407    2.4731    2.1038 H       1  LIG1        0.0230
     42 H           2.2799   -1.0433   -2.1621 H       1  LIG1        0.0624
     43 H          -0.2530   -0.6727    1.3275 H       1  LIG1        0.0624
     44 H          -1.2736    3.2335    1.4415 H       1  LIG1        0.0731
     45 H          -2.5382    2.2065    0.8624 H       1  LIG1        0.0731
     46 H           1.6122   -3.3625   -2.3835 H       1  LIG1        0.0629
     47 H          -1.0022   -2.9636    1.0061 H       1  LIG1        0.0629
     48 H           2.5094    4.4889    0.1973 H       1  LIG1        0.1049
     49 H          -2.8670    3.4864   -0.9721 H       1  LIG1        0.0732
     50 H          -1.6575    4.5544   -0.3532 H       1  LIG1        0.0732
     51 H          -3.0878   -0.4747   -2.4567 H       1  LIG1        0.0843
     52 H           0.5201    0.3583   -4.5957 H       1  LIG1        0.0843
@<TRIPOS>BOND
     1     1    28    1
     2     2    32    1
     3     3     5    2
     4     3     6    2
     5     3     8    1
     6     3     9    1
     7     4    19    1
     8     4    23    1
     9     7    27    1
    10     7    29    1
    11     8    14    1
    12     9    16    1
    13    10    16   ar
    14    10    26   ar
    15    11    19   ar
    16    11    26   ar
    17    12    29   ar
    18    12    30   ar
    19    13    29   ar
    20    13    31   ar
    21    14    17    1
    22    15    16   ar
    23    15    18    1
    24    15    19   ar
    25    17    20    1
    26    18    21   ar
    27    18    22   ar
    28    21    24   ar
    29    22    25   ar
    30    23    27    1
    31    24    28   ar
    32    25    28   ar
    33    30    32   ar
    34    31    32   ar
    35     8    33    1
    36     9    34    1
    37    14    35    1
    38    14    36    1
    39    17    37    1
    40    17    38    1
    41    20    39    1
    42    20    40    1
    43    20    41    1
    44    21    42    1
    45    22    43    1
    46    23    44    1
    47    23    45    1
    48    24    46    1
    49    25    47    1
    50    26    48    1
    51    27    49    1
    52    27    50    1
    53    30    51    1
    54    31    52    1
@<TRIPOS>MOLECULE
16004692
 52 54 0 0 0
SMALL
GASTEIGER

@<TRIPOS>ATOM
      1 BR         -0.4462   -4.9354   -1.2522 Br      1  LIG1       -0.0503
      2 BR         -1.8785    0.0457   -5.0832 Br      1  LIG1       -0.0472
      3 S           4.8047   -0.1596   -0.0570 S.O2    1  LIG1        0.1104
      4 O          -0.6231    1.6155    0.5322 O.3     1  LIG1       -0.4724
      5 O           4.3204   -0.0210    1.2888 O.2     1  LIG1       -0.1381
      6 O           5.0162   -1.4517   -0.6683 O.2     1  LIG1       -0.1381
      7 O          -1.3671    4.0870   -0.7518 O.3     1  LIG1       -0.4590
      8 N           6.2698    0.6363   -0.2208 N.3     1  LIG1       -0.1771
      9 N           3.8762    0.6955   -1.1302 N.pl3   1  LIG1       -0.1889
     10 N           3.1931    2.7002   -0.3968 N.ar    1  LIG1       -0.2186
     11 N           1.0928    3.1715    0.5482 N.ar    1  LIG1       -0.2008
     12 N          -2.5735    2.2969   -1.6902 N.ar    1  LIG1       -0.2022
     13 N          -0.6816    3.2650   -2.7802 N.ar    1  LIG1       -0.2022
     14 C           6.3714    2.0966   -0.0671 C.3     1  LIG1        0.0185
     15 C           1.5200    0.9146   -0.2948 C.ar    1  LIG1        0.0848
     16 C           2.7878    1.4293   -0.5936 C.ar    1  LIG1        0.1532
     17 C           6.0664    2.6064    1.3355 C.3     1  LIG1       -0.0416
     18 C           1.0623   -0.4938   -0.5353 C.ar    1  LIG1       -0.0094
     19 C           0.7091    1.9031    0.2809 C.ar    1  LIG1        0.2276
     20 C           7.0457    2.0904    2.3777 C.3     1  LIG1       -0.0641
     21 C           1.5012   -1.2737   -1.6235 C.ar    1  LIG1       -0.0527
     22 C           0.1366   -1.1289    0.3250 C.ar    1  LIG1       -0.0527
     23 C          -1.3203    2.6133    1.2878 C.3     1  LIG1        0.1252
     24 C           1.0852   -2.6000   -1.8190 C.ar    1  LIG1       -0.0472
     25 C          -0.3334   -2.4329    0.1056 C.ar    1  LIG1       -0.0472
     26 C           2.3185    3.5130    0.1789 C.ar    1  LIG1        0.1219
     27 C          -2.0161    3.7133    0.4623 C.3     1  LIG1        0.1267
     28 C           0.1572   -3.1686   -0.9610 C.ar    1  LIG1        0.0179
     29 C          -1.5711    3.1908   -1.7772 C.ar    1  LIG1        0.3180
     30 C          -2.6414    1.3831   -2.6795 C.ar    1  LIG1        0.0483
     31 C          -0.8051    2.3329   -3.7479 C.ar    1  LIG1        0.0483
     32 C          -1.7682    1.3509   -3.7402 C.ar    1  LIG1        0.0543
     33 H           6.7705    0.2678   -1.0268 H       1  LIG1        0.1493
     34 H           3.7263    0.1916   -1.9911 H       1  LIG1        0.1763
     35 H           5.7500    2.5965   -0.8153 H       1  LIG1        0.0442
     36 H           7.4012    2.3734   -0.3250 H       1  LIG1        0.0442
     37 H           5.0475    2.3571    1.6410 H       1  LIG1        0.0275
     38 H           6.1210    3.7026    1.3226 H       1  LIG1        0.0275
     39 H           6.9922    1.0017    2.4706 H       1  LIG1        0.0230
     40 H           6.8147    2.5241    3.3559 H       1  LIG1        0.0230
     41 H           8.0726    2.3665    2.1198 H       1  LIG1        0.0230
     42 H           2.1712   -0.8755   -2.3762 H       1  LIG1        0.0624
     43 H          -0.2525   -0.6135    1.2031 H       1  LIG1        0.0624
     44 H          -0.6846    3.0484    2.0712 H       1  LIG1        0.0731
     45 H          -2.1011    2.0844    1.8479 H       1  LIG1        0.0731
     46 H           1.4895   -3.1714   -2.6526 H       1  LIG1        0.0629
     47 H          -1.0713   -2.8557    0.7804 H       1  LIG1        0.0629
     48 H           2.6280    4.5353    0.3625 H       1  LIG1        0.1049
     49 H          -3.0741    3.4716    0.2940 H       1  LIG1        0.0732
     50 H          -2.0473    4.6154    1.0853 H       1  LIG1        0.0732
     51 H          -3.4415    0.6574   -2.5744 H       1  LIG1        0.0843
     52 H          -0.0727    2.4062   -4.5463 H       1  LIG1        0.0843
@<TRIPOS>BOND
     1     1    28    1
     2     2    32    1
     3     3     5    2
     4     3     6    2
     5     3     8    1
     6     3     9    1
     7     4    19    1
     8     4    23    1
     9     7    27    1
    10     7    29    1
    11     8    14    1
    12     9    16    1
    13    10    16   ar
    14    10    26   ar
    15    11    19   ar
    16    11    26   ar
    17    12    29   ar
    18    12    30   ar
    19    13    29   ar
    20    13    31   ar
    21    14    17    1
    22    15    16   ar
    23    15    18    1
    24    15    19   ar
    25    17    20    1
    26    18    21   ar
    27    18    22   ar
    28    21    24   ar
    29    22    25   ar
    30    23    27    1
    31    24    28   ar
    32    25    28   ar
    33    30    32   ar
    34    31    32   ar
    35     8    33    1
    36     9    34    1
    37    14    35    1
    38    14    36    1
    39    17    37    1
    40    17    38    1
    41    20    39    1
    42    20    40    1
    43    20    41    1
    44    21    42    1
    45    22    43    1
    46    23    44    1
    47    23    45    1
    48    24    46    1
    49    25    47    1
    50    26    48    1
    51    27    49    1
    52    27    50    1
    53    30    51    1
    54    31    52    1
