@<TRIPOS>MOLECULE
9957262
 56 59 0 0 0
SMALL
GASTEIGER

@<TRIPOS>ATOM
      1 S          -0.1315   -3.0235    0.9003 S.O2    1  LIG1        0.0668
      2 O          -0.9062    0.7520    0.5922 O.3     1  LIG1       -0.4435
      3 O           0.5417    2.2142   -1.0632 O.3     1  LIG1       -0.4771
      4 O          -0.5287   -2.5673   -0.4165 O.2     1  LIG1       -0.1505
      5 O          -1.1146   -3.6166    1.7829 O.2     1  LIG1       -0.1505
      6 O          -3.4736   -0.5226    0.7560 O.3     1  LIG1       -0.4914
      7 N           0.4548   -1.6968    1.7649 N.pl3   1  LIG1       -0.1968
      8 N           2.3611   -0.9917    0.7091 N.ar    1  LIG1       -0.2044
      9 N           2.4601    0.9153   -0.7098 N.ar    1  LIG1       -0.1867
     10 N           5.2229    0.6448   -0.8265 N.ar    1  LIG1       -0.2331
     11 N           4.9920   -1.6139   -0.0842 N.ar    1  LIG1       -0.2331
     12 C           1.0744   -0.6971    0.9646 C.ar    1  LIG1        0.1883
     13 C           0.4046    0.3932    0.4339 C.ar    1  LIG1        0.2307
     14 C           1.1623    1.1410   -0.4458 C.ar    1  LIG1        0.2639
     15 C          -1.5250    0.5763    1.8027 C.ar    1  LIG1        0.1702
     16 C           1.1976   -4.1258    0.8006 C.2     1  LIG1        0.0729
     17 C           3.0296   -0.1507   -0.1100 C.ar    1  LIG1        0.2027
     18 C          -2.7650   -0.0756    1.8381 C.ar    1  LIG1        0.1621
     19 C           1.7065   -4.4807   -0.3882 C.2     1  LIG1       -0.0353
     20 C           2.7733   -5.4774   -0.5247 C.ar    1  LIG1       -0.0237
     21 C          -0.9314    1.0225    2.9919 C.ar    1  LIG1       -0.0157
     22 C           4.4817   -0.3894   -0.3548 C.ar    1  LIG1        0.1978
     23 C          -3.3310   -0.3939    3.0745 C.ar    1  LIG1       -0.0163
     24 C          -1.5206    0.7204    4.2200 C.ar    1  LIG1       -0.0581
     25 C          -2.7102   -0.0039    4.2615 C.ar    1  LIG1       -0.0581
     26 C           3.8554   -5.5433    0.3633 C.ar    1  LIG1       -0.0546
     27 C           2.7182   -6.3813   -1.5927 C.ar    1  LIG1       -0.0546
     28 C           4.8415   -6.5203    0.2075 C.ar    1  LIG1       -0.0612
     29 C           3.7064   -7.3553   -1.7505 C.ar    1  LIG1       -0.0612
     30 C           4.7644   -7.4283   -0.8469 C.ar    1  LIG1       -0.0617
     31 C           1.2384    2.6721   -2.2188 C.3     1  LIG1        0.0805
     32 C          -3.4648    0.3334   -0.3836 C.3     1  LIG1        0.0790
     33 C           6.5328    0.4154   -1.0267 C.ar    1  LIG1        0.0315
     34 C           6.3065   -1.7869   -0.3177 C.ar    1  LIG1        0.0315
     35 C           7.1339   -0.7956   -0.7888 C.ar    1  LIG1       -0.0254
     36 H          -0.3055   -1.3759    2.3586 H       1  LIG1        0.1753
     37 H           1.5383   -4.5372    1.7383 H       1  LIG1        0.0838
     38 H           1.3092   -4.0704   -1.3147 H       1  LIG1        0.0637
     39 H           0.0022    1.5790    2.9732 H       1  LIG1        0.0655
     40 H          -4.2659   -0.9492    3.1093 H       1  LIG1        0.0655
     41 H          -1.0469    1.0378    5.1460 H       1  LIG1        0.0619
     42 H          -3.1634   -0.2595    5.2163 H       1  LIG1        0.0619
     43 H           3.9452   -4.8320    1.1816 H       1  LIG1        0.0623
     44 H           1.8944   -6.3452   -2.3028 H       1  LIG1        0.0623
     45 H           5.6688   -6.5716    0.9102 H       1  LIG1        0.0618
     46 H           3.6455   -8.0589   -2.5765 H       1  LIG1        0.0618
     47 H           5.5293   -8.1909   -0.9663 H       1  LIG1        0.0618
     48 H           0.6156    3.4300   -2.7042 H       1  LIG1        0.0660
     49 H           1.3927    1.8600   -2.9386 H       1  LIG1        0.0660
     50 H           2.1887    3.1436   -1.9478 H       1  LIG1        0.0660
     51 H          -4.3921    0.1591   -0.9381 H       1  LIG1        0.0660
     52 H          -2.6332    0.0772   -1.0464 H       1  LIG1        0.0660
     53 H          -3.4401    1.3950   -0.1114 H       1  LIG1        0.0660
     54 H           7.1007    1.2649   -1.3962 H       1  LIG1        0.0831
     55 H           6.6871   -2.7822   -0.1071 H       1  LIG1        0.0831
     56 H           8.1886   -0.9574   -0.9618 H       1  LIG1        0.0648
@<TRIPOS>BOND
     1     1     4    2
     2     1     5    2
     3     1     7    1
     4     1    16    1
     5     2    13    1
     6     2    15    1
     7     3    14    1
     8     3    31    1
     9     6    18    1
    10     6    32    1
    11     7    12    1
    12     8    12   ar
    13     8    17   ar
    14     9    14   ar
    15     9    17   ar
    16    10    22   ar
    17    10    33   ar
    18    11    22   ar
    19    11    34   ar
    20    12    13   ar
    21    13    14   ar
    22    15    18   ar
    23    15    21   ar
    24    16    19    2
    25    17    22    1
    26    18    23   ar
    27    19    20    1
    28    20    26   ar
    29    20    27   ar
    30    21    24   ar
    31    23    25   ar
    32    24    25   ar
    33    26    28   ar
    34    27    29   ar
    35    28    30   ar
    36    29    30   ar
    37    33    35   ar
    38    34    35   ar
    39     7    36    1
    40    16    37    1
    41    19    38    1
    42    21    39    1
    43    23    40    1
    44    24    41    1
    45    25    42    1
    46    26    43    1
    47    27    44    1
    48    28    45    1
    49    29    46    1
    50    30    47    1
    51    31    48    1
    52    31    49    1
    53    31    50    1
    54    32    51    1
    55    32    52    1
    56    32    53    1
    57    33    54    1
    58    34    55    1
    59    35    56    1
@<TRIPOS>MOLECULE
9957262
 56 59 0 0 0
SMALL
GASTEIGER

@<TRIPOS>ATOM
      1 S           0.4464   -1.0565    3.1512 S.O2    1  LIG1        0.0668
      2 O          -0.9268    0.5541    0.3385 O.3     1  LIG1       -0.4435
      3 O           0.6436    2.5743   -0.9657 O.3     1  LIG1       -0.4771
      4 O          -0.8074   -1.5853    3.6537 O.2     1  LIG1       -0.1505
      5 O           0.7155    0.3633    3.2383 O.2     1  LIG1       -0.1505
      6 O          -3.1671    2.3819    0.9104 O.3     1  LIG1       -0.4914
      7 N           0.5220   -1.5486    1.5177 N.pl3   1  LIG1       -0.1968
      8 N           2.4217   -0.8379    0.4508 N.ar    1  LIG1       -0.2044
      9 N           2.5360    1.2220   -0.7435 N.ar    1  LIG1       -0.1867
     10 N           5.0676    0.2347   -1.6776 N.ar    1  LIG1       -0.2331
     11 N           5.2780   -0.6235    0.5440 N.ar    1  LIG1       -0.2331
     12 C           1.1196   -0.5959    0.6444 C.ar    1  LIG1        0.1883
     13 C           0.4232    0.4812    0.1308 C.ar    1  LIG1        0.2307
     14 C           1.2192    1.4012   -0.5222 C.ar    1  LIG1        0.2639
     15 C          -1.7360    1.0616   -0.6557 C.ar    1  LIG1        0.1702
     16 C           1.7081   -1.9238    3.9953 C.2     1  LIG1        0.0729
     17 C           3.0949    0.0959   -0.2559 C.ar    1  LIG1        0.2027
     18 C          -2.7787    1.9386   -0.3251 C.ar    1  LIG1        0.1621
     19 C           2.9590   -1.9355    3.5112 C.2     1  LIG1       -0.0353
     20 C           4.1119   -2.6672    4.0531 C.ar    1  LIG1       -0.0237
     21 C          -1.5479    0.6780   -1.9969 C.ar    1  LIG1       -0.0157
     22 C           4.5500   -0.1076   -0.4750 C.ar    1  LIG1        0.1978
     23 C          -3.5531    2.4849   -1.3603 C.ar    1  LIG1       -0.0163
     24 C          -2.3224    1.2381   -3.0133 C.ar    1  LIG1       -0.0581
     25 C          -3.3207    2.1523   -2.6950 C.ar    1  LIG1       -0.0581
     26 C           4.2504   -3.0304    5.4004 C.ar    1  LIG1       -0.0546
     27 C           5.1673   -2.9557    3.1751 C.ar    1  LIG1       -0.0546
     28 C           5.4163   -3.6595    5.8432 C.ar    1  LIG1       -0.0612
     29 C           6.3373   -3.5711    3.6200 C.ar    1  LIG1       -0.0612
     30 C           6.4617   -3.9242    4.9577 C.ar    1  LIG1       -0.0617
     31 C           1.5620    3.5011   -1.5306 C.3     1  LIG1        0.0805
     32 C          -2.5606    1.8131    2.0636 C.3     1  LIG1        0.0790
     33 C           6.3905    0.0437   -1.8404 C.ar    1  LIG1        0.0315
     34 C           6.5986   -0.7706    0.3276 C.ar    1  LIG1        0.0315
     35 C           7.2125   -0.4576   -0.8605 C.ar    1  LIG1       -0.0254
     36 H           1.0028   -2.4422    1.4432 H       1  LIG1        0.1753
     37 H           1.4057   -2.4444    4.8870 H       1  LIG1        0.0838
     38 H           3.1951   -1.3641    2.6187 H       1  LIG1        0.0637
     39 H          -0.7786   -0.0388   -2.2682 H       1  LIG1        0.0655
     40 H          -4.3495    3.1855   -1.1169 H       1  LIG1        0.0655
     41 H          -2.1420    0.9668   -4.0505 H       1  LIG1        0.0619
     42 H          -3.9231    2.6013   -3.4801 H       1  LIG1        0.0619
     43 H           3.4624   -2.8205    6.1165 H       1  LIG1        0.0623
     44 H           5.0860   -2.6949    2.1200 H       1  LIG1        0.0623
     45 H           5.5142   -3.9330    6.8904 H       1  LIG1        0.0618
     46 H           7.1456   -3.7702    2.9240 H       1  LIG1        0.0618
     47 H           7.3747   -4.3929    5.3163 H       1  LIG1        0.0618
     48 H           0.9860    4.3525   -1.9065 H       1  LIG1        0.0660
     49 H           2.1041    3.0705   -2.3791 H       1  LIG1        0.0660
     50 H           2.2550    3.8740   -0.7680 H       1  LIG1        0.0660
     51 H          -3.0843    2.2075    2.9401 H       1  LIG1        0.0660
     52 H          -1.5144    2.1238    2.1453 H       1  LIG1        0.0660
     53 H          -2.6709    0.7245    2.0836 H       1  LIG1        0.0660
     54 H           6.7805    0.3177   -2.8161 H       1  LIG1        0.0831
     55 H           7.1664   -1.1613    1.1668 H       1  LIG1        0.0831
     56 H           8.2735   -0.5932   -1.0129 H       1  LIG1        0.0648
@<TRIPOS>BOND
     1     1     4    2
     2     1     5    2
     3     1     7    1
     4     1    16    1
     5     2    13    1
     6     2    15    1
     7     3    14    1
     8     3    31    1
     9     6    18    1
    10     6    32    1
    11     7    12    1
    12     8    12   ar
    13     8    17   ar
    14     9    14   ar
    15     9    17   ar
    16    10    22   ar
    17    10    33   ar
    18    11    22   ar
    19    11    34   ar
    20    12    13   ar
    21    13    14   ar
    22    15    18   ar
    23    15    21   ar
    24    16    19    2
    25    17    22    1
    26    18    23   ar
    27    19    20    1
    28    20    26   ar
    29    20    27   ar
    30    21    24   ar
    31    23    25   ar
    32    24    25   ar
    33    26    28   ar
    34    27    29   ar
    35    28    30   ar
    36    29    30   ar
    37    33    35   ar
    38    34    35   ar
    39     7    36    1
    40    16    37    1
    41    19    38    1
    42    21    39    1
    43    23    40    1
    44    24    41    1
    45    25    42    1
    46    26    43    1
    47    27    44    1
    48    28    45    1
    49    29    46    1
    50    30    47    1
    51    31    48    1
    52    31    49    1
    53    31    50    1
    54    32    51    1
    55    32    52    1
    56    32    53    1
    57    33    54    1
    58    34    55    1
    59    35    56    1
@<TRIPOS>MOLECULE
9957262
 56 59 0 0 0
SMALL
GASTEIGER

@<TRIPOS>ATOM
      1 S          -0.1060   -3.1535    0.8067 S.O2    1  LIG1        0.0668
      2 O          -0.9898    0.6114    0.5314 O.3     1  LIG1       -0.4435
      3 O           0.4151    2.1626   -1.1106 O.3     1  LIG1       -0.4771
      4 O           0.7441   -3.4201   -0.3308 O.2     1  LIG1       -0.1505
      5 O          -1.5263   -2.9361    0.6303 O.2     1  LIG1       -0.1505
      6 O          -3.4513   -0.2664    0.6984 O.3     1  LIG1       -0.4914
      7 N           0.4543   -1.7985    1.6597 N.pl3   1  LIG1       -0.1968
      8 N           2.3336   -1.0047    0.6225 N.ar    1  LIG1       -0.2044
      9 N           2.3703    0.9139   -0.7811 N.ar    1  LIG1       -0.1867
     10 N           4.9994   -1.5136   -0.1127 N.ar    1  LIG1       -0.2331
     11 N           5.1458    0.7416   -0.8814 N.ar    1  LIG1       -0.2331
     12 C           1.0278   -0.7799    0.8459 C.ar    1  LIG1        0.1883
     13 C           0.3256    0.2969    0.3353 C.ar    1  LIG1        0.2307
     14 C           1.0618    1.0889   -0.5238 C.ar    1  LIG1        0.2639
     15 C          -1.5318    0.5236    1.7954 C.ar    1  LIG1        0.1702
     16 C           0.0665   -4.4485    1.9553 C.2     1  LIG1        0.0729
     17 C           2.9751   -0.1369   -0.1873 C.ar    1  LIG1        0.2027
     18 C          -2.8341    0.0045    1.8894 C.ar    1  LIG1        0.1621
     19 C           1.2377   -4.6041    2.5927 C.2     1  LIG1       -0.0353
     20 C           1.5237   -5.5916    3.6470 C.ar    1  LIG1       -0.0237
     21 C          -0.8373    0.9200    2.9457 C.ar    1  LIG1       -0.0157
     22 C           4.4403   -0.3165   -0.4110 C.ar    1  LIG1        0.1978
     23 C          -3.3863   -0.2131    3.1528 C.ar    1  LIG1       -0.0163
     24 C          -1.4026    0.6983    4.2017 C.ar    1  LIG1       -0.0581
     25 C          -2.6662    0.1184    4.3032 C.ar    1  LIG1       -0.0581
     26 C           2.8517   -5.7362    4.0759 C.ar    1  LIG1       -0.0546
     27 C           0.5346   -6.3562    4.2811 C.ar    1  LIG1       -0.0546
     28 C           3.1840   -6.6249    5.1019 C.ar    1  LIG1       -0.0612
     29 C           0.8668   -7.2473    5.3070 C.ar    1  LIG1       -0.0612
     30 C           2.1907   -7.3810    5.7175 C.ar    1  LIG1       -0.0617
     31 C           1.1017    2.6720   -2.2499 C.3     1  LIG1        0.0805
     32 C          -4.7768   -0.7723    0.7416 C.3     1  LIG1        0.0790
     33 C           6.3232   -1.6351   -0.3210 C.ar    1  LIG1        0.0315
     34 C           6.4684    0.5646   -1.0561 C.ar    1  LIG1        0.0315
     35 C           7.1159   -0.6167   -0.7922 C.ar    1  LIG1       -0.0254
     36 H          -0.3293   -1.4704    2.2165 H       1  LIG1        0.1753
     37 H          -0.8108   -5.0542    2.1218 H       1  LIG1        0.0838
     38 H           2.0669   -3.9427    2.3360 H       1  LIG1        0.0637
     39 H           0.1454    1.3779    2.8798 H       1  LIG1        0.0655
     40 H          -4.3745   -0.6455    3.2742 H       1  LIG1        0.0655
     41 H          -0.8564    0.9740    5.1011 H       1  LIG1        0.0619
     42 H          -3.1009   -0.0640    5.2836 H       1  LIG1        0.0619
     43 H           3.6475   -5.1538    3.6148 H       1  LIG1        0.0623
     44 H          -0.5111   -6.2713    4.0013 H       1  LIG1        0.0623
     45 H           4.2184   -6.7223    5.4206 H       1  LIG1        0.0618
     46 H           0.0881   -7.8333    5.7889 H       1  LIG1        0.0618
     47 H           2.4471   -8.0710    6.5170 H       1  LIG1        0.0618
     48 H           0.4607    3.4268   -2.7154 H       1  LIG1        0.0660
     49 H           1.2796    1.8851   -2.9923 H       1  LIG1        0.0660
     50 H           2.0389    3.1597   -1.9633 H       1  LIG1        0.0660
     51 H          -5.1277   -0.8762   -0.2899 H       1  LIG1        0.0660
     52 H          -5.4509   -0.0758    1.2508 H       1  LIG1        0.0660
     53 H          -4.8034   -1.7620    1.2069 H       1  LIG1        0.0660
     54 H           6.7402   -2.6110   -0.0897 H       1  LIG1        0.0831
     55 H           7.0070    1.4319   -1.4263 H       1  LIG1        0.0831
     56 H           8.1792   -0.7374   -0.9451 H       1  LIG1        0.0648
@<TRIPOS>BOND
     1     1     4    2
     2     1     5    2
     3     1     7    1
     4     1    16    1
     5     2    13    1
     6     2    15    1
     7     3    14    1
     8     3    31    1
     9     6    18    1
    10     6    32    1
    11     7    12    1
    12     8    12   ar
    13     8    17   ar
    14     9    14   ar
    15     9    17   ar
    16    10    22   ar
    17    10    33   ar
    18    11    22   ar
    19    11    34   ar
    20    12    13   ar
    21    13    14   ar
    22    15    18   ar
    23    15    21   ar
    24    16    19    2
    25    17    22    1
    26    18    23   ar
    27    19    20    1
    28    20    26   ar
    29    20    27   ar
    30    21    24   ar
    31    23    25   ar
    32    24    25   ar
    33    26    28   ar
    34    27    29   ar
    35    28    30   ar
    36    29    30   ar
    37    33    35   ar
    38    34    35   ar
    39     7    36    1
    40    16    37    1
    41    19    38    1
    42    21    39    1
    43    23    40    1
    44    24    41    1
    45    25    42    1
    46    26    43    1
    47    27    44    1
    48    28    45    1
    49    29    46    1
    50    30    47    1
    51    31    48    1
    52    31    49    1
    53    31    50    1
    54    32    51    1
    55    32    52    1
    56    32    53    1
    57    33    54    1
    58    34    55    1
    59    35    56    1
@<TRIPOS>MOLECULE
9957262
 56 59 0 0 0
SMALL
GASTEIGER

@<TRIPOS>ATOM
      1 S          -0.1181   -3.0601    0.9031 S.O2    1  LIG1        0.0668
      2 O          -0.9525    0.5785    0.5118 O.3     1  LIG1       -0.4435
      3 O           0.4886    2.1923   -1.0458 O.3     1  LIG1       -0.4771
      4 O          -0.4933   -2.6405   -0.4322 O.2     1  LIG1       -0.1505
      5 O          -1.0989   -3.6508    1.7906 O.2     1  LIG1       -0.1505
      6 O          -3.6372   -0.6142    0.7450 O.3     1  LIG1       -0.4914
      7 N           0.5137   -1.7346    1.7463 N.pl3   1  LIG1       -0.1968
      8 N           2.4092   -0.9375    0.7710 N.ar    1  LIG1       -0.2044
      9 N           2.4579    0.9717   -0.6520 N.ar    1  LIG1       -0.1867
     10 N           5.0056   -1.5349   -0.0401 N.ar    1  LIG1       -0.2331
     11 N           5.2492    0.7264   -0.7707 N.ar    1  LIG1       -0.2331
     12 C           1.0972   -0.7269    0.9386 C.ar    1  LIG1        0.1883
     13 C           0.3830    0.3145    0.3790 C.ar    1  LIG1        0.2307
     14 C           1.1380    1.1320   -0.4369 C.ar    1  LIG1        0.2639
     15 C          -1.5712    0.3952    1.7264 C.ar    1  LIG1        0.1702
     16 C           1.1865   -4.2029    0.8080 C.2     1  LIG1        0.0729
     17 C           3.0566   -0.0713   -0.0398 C.ar    1  LIG1        0.2027
     18 C          -2.8474   -0.1846    1.7773 C.ar    1  LIG1        0.1621
     19 C           2.1245   -4.0892   -0.1437 C.2     1  LIG1       -0.0353
     20 C           3.2449   -5.0287   -0.2754 C.ar    1  LIG1       -0.0237
     21 C          -0.9615    0.8410    2.9132 C.ar    1  LIG1       -0.0157
     22 C           4.5071   -0.3011   -0.2933 C.ar    1  LIG1        0.1978
     23 C          -3.4438   -0.3920    3.0293 C.ar    1  LIG1       -0.0163
     24 C          -1.5707    0.6270    4.1499 C.ar    1  LIG1       -0.0581
     25 C          -2.8090   -0.0014    4.2087 C.ar    1  LIG1       -0.0581
     26 C           3.9456   -5.5158    0.8362 C.ar    1  LIG1       -0.0546
     27 C           3.6577   -5.4136   -1.5563 C.ar    1  LIG1       -0.0546
     28 C           5.0174   -6.3964    0.6697 C.ar    1  LIG1       -0.0612
     29 C           4.7287   -6.2948   -1.7224 C.ar    1  LIG1       -0.0612
     30 C           5.4060   -6.7886   -0.6094 C.ar    1  LIG1       -0.0617
     31 C           1.3179    2.9417   -1.9281 C.3     1  LIG1        0.0805
     32 C          -3.2583   -0.3046   -0.5871 C.3     1  LIG1        0.0790
     33 C           6.3113   -1.7276   -0.2987 C.ar    1  LIG1        0.0315
     34 C           6.5521    0.4780   -0.9966 C.ar    1  LIG1        0.0315
     35 C           7.1416   -0.7440   -0.7789 C.ar    1  LIG1       -0.0254
     36 H           1.1807   -2.0527    2.4450 H       1  LIG1        0.1753
     37 H           1.1733   -5.0009    1.5360 H       1  LIG1        0.0838
     38 H           2.0796   -3.2947   -0.8844 H       1  LIG1        0.0637
     39 H          -0.0013    1.3484    2.8874 H       1  LIG1        0.0655
     40 H          -4.4212   -0.8673    3.0808 H       1  LIG1        0.0655
     41 H          -1.0789    0.9474    5.0642 H       1  LIG1        0.0619
     42 H          -3.2893   -0.1811    5.1667 H       1  LIG1        0.0619
     43 H           3.6738   -5.2096    1.8431 H       1  LIG1        0.0623
     44 H           3.1389   -5.0409   -2.4372 H       1  LIG1        0.0623
     45 H           5.5488   -6.7743    1.5393 H       1  LIG1        0.0618
     46 H           5.0307   -6.5971   -2.7218 H       1  LIG1        0.0618
     47 H           6.2366   -7.4773   -0.7390 H       1  LIG1        0.0618
     48 H           0.7048    3.7341   -2.3685 H       1  LIG1        0.0660
     49 H           1.6926    2.3173   -2.7466 H       1  LIG1        0.0660
     50 H           2.1419    3.4204   -1.3878 H       1  LIG1        0.0660
     51 H          -4.0788   -0.6109   -1.2437 H       1  LIG1        0.0660
     52 H          -2.3769   -0.8743   -0.8891 H       1  LIG1        0.0660
     53 H          -3.1155    0.7716   -0.7277 H       1  LIG1        0.0660
     54 H           6.6790   -2.7310   -0.1020 H       1  LIG1        0.0831
     55 H           7.1258    1.3205   -1.3725 H       1  LIG1        0.0831
     56 H           8.1901   -0.9198   -0.9740 H       1  LIG1        0.0648
@<TRIPOS>BOND
     1     1     4    2
     2     1     5    2
     3     1     7    1
     4     1    16    1
     5     2    13    1
     6     2    15    1
     7     3    14    1
     8     3    31    1
     9     6    18    1
    10     6    32    1
    11     7    12    1
    12     8    12   ar
    13     8    17   ar
    14     9    14   ar
    15     9    17   ar
    16    10    22   ar
    17    10    33   ar
    18    11    22   ar
    19    11    34   ar
    20    12    13   ar
    21    13    14   ar
    22    15    18   ar
    23    15    21   ar
    24    16    19    2
    25    17    22    1
    26    18    23   ar
    27    19    20    1
    28    20    26   ar
    29    20    27   ar
    30    21    24   ar
    31    23    25   ar
    32    24    25   ar
    33    26    28   ar
    34    27    29   ar
    35    28    30   ar
    36    29    30   ar
    37    33    35   ar
    38    34    35   ar
    39     7    36    1
    40    16    37    1
    41    19    38    1
    42    21    39    1
    43    23    40    1
    44    24    41    1
    45    25    42    1
    46    26    43    1
    47    27    44    1
    48    28    45    1
    49    29    46    1
    50    30    47    1
    51    31    48    1
    52    31    49    1
    53    31    50    1
    54    32    51    1
    55    32    52    1
    56    32    53    1
    57    33    54    1
    58    34    55    1
    59    35    56    1
@<TRIPOS>MOLECULE
9957262
 56 59 0 0 0
SMALL
GASTEIGER

@<TRIPOS>ATOM
      1 S          -0.0702   -2.9963    0.8890 S.O2    1  LIG1        0.0668
      2 O          -0.8821    0.8262    0.6296 O.3     1  LIG1       -0.4435
      3 O           0.6010    2.3564   -0.9287 O.3     1  LIG1       -0.4771
      4 O          -0.4708   -2.5410   -0.4268 O.2     1  LIG1       -0.1505
      5 O          -1.0408   -3.6302    1.7604 O.2     1  LIG1       -0.1505
      6 O          -3.4395   -0.4870    0.7418 O.3     1  LIG1       -0.4914
      7 N           0.4605   -1.6538    1.7646 N.pl3   1  LIG1       -0.1968
      8 N           2.3730   -0.9405    0.7228 N.ar    1  LIG1       -0.2044
      9 N           2.5026    1.0178   -0.6213 N.ar    1  LIG1       -0.1867
     10 N           4.9894   -1.5781   -0.0938 N.ar    1  LIG1       -0.2331
     11 N           5.2562    0.6929   -0.7829 N.ar    1  LIG1       -0.2331
     12 C           1.0876   -0.6438    0.9810 C.ar    1  LIG1        0.1883
     13 C           0.4304    0.4667    0.4785 C.ar    1  LIG1        0.2307
     14 C           1.2060    1.2493   -0.3556 C.ar    1  LIG1        0.2639
     15 C          -1.5145    0.6187    1.8277 C.ar    1  LIG1        0.1702
     16 C           1.2961   -4.0494    0.7916 C.2     1  LIG1        0.0729
     17 C           3.0537   -0.0806   -0.0656 C.ar    1  LIG1        0.2027
     18 C          -2.7466   -0.0486    1.8374 C.ar    1  LIG1        0.1621
     19 C           1.6225   -4.6231   -0.3757 C.2     1  LIG1       -0.0353
     20 C           2.7286   -5.5764   -0.5082 C.ar    1  LIG1       -0.0237
     21 C          -0.9366    1.0470    3.0313 C.ar    1  LIG1       -0.0157
     22 C           4.5000   -0.3382   -0.3291 C.ar    1  LIG1        0.1978
     23 C          -3.3210   -0.3962    3.0622 C.ar    1  LIG1       -0.0163
     24 C          -1.5340    0.7148    4.2473 C.ar    1  LIG1       -0.0581
     25 C          -2.7161   -0.0224    4.2627 C.ar    1  LIG1       -0.0581
     26 C           2.9323   -6.6054    0.4219 C.ar    1  LIG1       -0.0546
     27 C           3.5624   -5.5014   -1.6294 C.ar    1  LIG1       -0.0546
     28 C           3.9651   -7.5283    0.2437 C.ar    1  LIG1       -0.0612
     29 C           4.5952   -6.4248   -1.8073 C.ar    1  LIG1       -0.0612
     30 C           4.7967   -7.4368   -0.8703 C.ar    1  LIG1       -0.0617
     31 C           1.4063    2.9983   -1.9134 C.3     1  LIG1        0.0805
     32 C          -3.4149    0.3735   -0.3939 C.3     1  LIG1        0.0790
     33 C           6.2998   -1.7684   -0.3335 C.ar    1  LIG1        0.0315
     34 C           6.5605    0.4446   -0.9959 C.ar    1  LIG1        0.0315
     35 C           7.1424   -0.7813   -0.7864 C.ar    1  LIG1       -0.0254
     36 H          -0.3196   -1.3472    2.3364 H       1  LIG1        0.1753
     37 H           1.8277   -4.2321    1.7127 H       1  LIG1        0.0838
     38 H           1.0748   -4.3960   -1.2881 H       1  LIG1        0.0637
     39 H          -0.0083    1.6126    3.0321 H       1  LIG1        0.0655
     40 H          -4.2497   -0.9626    3.0775 H       1  LIG1        0.0655
     41 H          -1.0721    1.0185    5.1837 H       1  LIG1        0.0619
     42 H          -3.1756   -0.3015    5.2079 H       1  LIG1        0.0619
     43 H           2.2800   -6.7101    1.2858 H       1  LIG1        0.0623
     44 H           3.4174   -4.7182   -2.3703 H       1  LIG1        0.0623
     45 H           4.1121   -8.3234    0.9701 H       1  LIG1        0.0618
     46 H           5.2377   -6.3563   -2.6810 H       1  LIG1        0.0618
     47 H           5.5963   -8.1589   -1.0121 H       1  LIG1        0.0618
     48 H           0.8152    3.8098   -2.3490 H       1  LIG1        0.0660
     49 H           1.6707    2.3091   -2.7233 H       1  LIG1        0.0660
     50 H           2.3016    3.4415   -1.4645 H       1  LIG1        0.0660
     51 H          -4.3311    0.1960   -0.9655 H       1  LIG1        0.0660
     52 H          -2.5701    0.1244   -1.0427 H       1  LIG1        0.0660
     53 H          -3.4017    1.4339   -0.1167 H       1  LIG1        0.0660
     54 H           6.6639   -2.7741   -0.1422 H       1  LIG1        0.0831
     55 H           7.1417    1.2914   -1.3502 H       1  LIG1        0.0831
     56 H           8.1937   -0.9571   -0.9655 H       1  LIG1        0.0648
@<TRIPOS>BOND
     1     1     4    2
     2     1     5    2
     3     1     7    1
     4     1    16    1
     5     2    13    1
     6     2    15    1
     7     3    14    1
     8     3    31    1
     9     6    18    1
    10     6    32    1
    11     7    12    1
    12     8    12   ar
    13     8    17   ar
    14     9    14   ar
    15     9    17   ar
    16    10    22   ar
    17    10    33   ar
    18    11    22   ar
    19    11    34   ar
    20    12    13   ar
    21    13    14   ar
    22    15    18   ar
    23    15    21   ar
    24    16    19    2
    25    17    22    1
    26    18    23   ar
    27    19    20    1
    28    20    26   ar
    29    20    27   ar
    30    21    24   ar
    31    23    25   ar
    32    24    25   ar
    33    26    28   ar
    34    27    29   ar
    35    28    30   ar
    36    29    30   ar
    37    33    35   ar
    38    34    35   ar
    39     7    36    1
    40    16    37    1
    41    19    38    1
    42    21    39    1
    43    23    40    1
    44    24    41    1
    45    25    42    1
    46    26    43    1
    47    27    44    1
    48    28    45    1
    49    29    46    1
    50    30    47    1
    51    31    48    1
    52    31    49    1
    53    31    50    1
    54    32    51    1
    55    32    52    1
    56    32    53    1
    57    33    54    1
    58    34    55    1
    59    35    56    1
@<TRIPOS>MOLECULE
9957262
 56 59 0 0 0
SMALL
GASTEIGER

@<TRIPOS>ATOM
      1 S          -0.1262   -2.9963    0.8984 S.O2    1  LIG1        0.0668
      2 O          -0.8847    0.7866    0.6125 O.3     1  LIG1       -0.4435
      3 O           0.5967    2.2791   -0.9847 O.3     1  LIG1       -0.4771
      4 O          -0.5086   -2.5308   -0.4199 O.2     1  LIG1       -0.1505
      5 O          -1.1197   -3.5978    1.7664 O.2     1  LIG1       -0.1505
      6 O          -3.4451   -0.5129    0.7561 O.3     1  LIG1       -0.4914
      7 N           0.4503   -1.6770    1.7806 N.pl3   1  LIG1       -0.1968
      8 N           2.3731   -0.9732    0.7520 N.ar    1  LIG1       -0.2044
      9 N           2.4936    0.9381   -0.6610 N.ar    1  LIG1       -0.1867
     10 N           5.1889   -1.1355    0.5748 N.ar    1  LIG1       -0.2331
     11 N           5.0538    0.1592   -1.4291 N.ar    1  LIG1       -0.2331
     12 C           1.0854   -0.6738    0.9957 C.ar    1  LIG1        0.1883
     13 C           0.4269    0.4245    0.4661 C.ar    1  LIG1        0.2307
     14 C           1.2009    1.1824   -0.3915 C.ar    1  LIG1        0.2639
     15 C          -1.5148    0.6067    1.8165 C.ar    1  LIG1        0.1702
     16 C           1.2034   -4.0984    0.8067 C.2     1  LIG1        0.0729
     17 C           3.0487   -0.1405   -0.0688 C.ar    1  LIG1        0.2027
     18 C          -2.7504   -0.0541    1.8422 C.ar    1  LIG1        0.1621
     19 C           1.6970   -4.4763   -0.3810 C.2     1  LIG1       -0.0353
     20 C           2.7649   -5.4741   -0.5164 C.ar    1  LIG1       -0.0237
     21 C          -0.9346    1.0587    3.0101 C.ar    1  LIG1       -0.0157
     22 C           4.4952   -0.3986   -0.3258 C.ar    1  LIG1        0.1978
     23 C          -3.3264   -0.3714    3.0744 C.ar    1  LIG1       -0.0163
     24 C          -1.5338    0.7576    4.2335 C.ar    1  LIG1       -0.0581
     25 C          -2.7197    0.0270    4.2660 C.ar    1  LIG1       -0.0581
     26 C           3.8447   -5.5454    0.3737 C.ar    1  LIG1       -0.0546
     27 C           2.7128   -6.3730   -1.5894 C.ar    1  LIG1       -0.0546
     28 C           4.8312   -6.5220    0.2147 C.ar    1  LIG1       -0.0612
     29 C           3.7012   -7.3466   -1.7499 C.ar    1  LIG1       -0.0612
     30 C           4.7569   -7.4244   -0.8443 C.ar    1  LIG1       -0.0617
     31 C           1.4117    2.9168   -1.9639 C.3     1  LIG1        0.0805
     32 C          -3.4288    0.3328   -0.3909 C.3     1  LIG1        0.0790
     33 C           6.5035   -1.3002    0.3362 C.ar    1  LIG1        0.0315
     34 C           6.3686   -0.0494   -1.6184 C.ar    1  LIG1        0.0315
     35 C           7.1522   -0.7744   -0.7552 C.ar    1  LIG1       -0.0254
     36 H          -0.3157   -1.3569    2.3669 H       1  LIG1        0.1753
     37 H           1.5583   -4.4874    1.7497 H       1  LIG1        0.0838
     38 H           1.2833   -4.0869   -1.3090 H       1  LIG1        0.0637
     39 H          -0.0040    1.6203    2.9982 H       1  LIG1        0.0655
     40 H          -4.2578   -0.9328    3.1024 H       1  LIG1        0.0655
     41 H          -1.0709    1.0812    5.1628 H       1  LIG1        0.0619
     42 H          -3.1809   -0.2274    5.2173 H       1  LIG1        0.0619
     43 H           3.9340   -4.8403    1.1971 H       1  LIG1        0.0623
     44 H           1.8916   -6.3337   -2.3021 H       1  LIG1        0.0623
     45 H           5.6576   -6.5761    0.9185 H       1  LIG1        0.0618
     46 H           3.6426   -8.0460   -2.5798 H       1  LIG1        0.0618
     47 H           5.5228   -8.1858   -0.9659 H       1  LIG1        0.0618
     48 H           0.8261    3.7287   -2.4061 H       1  LIG1        0.0660
     49 H           1.6820    2.2250   -2.7694 H       1  LIG1        0.0660
     50 H           2.3037    3.3598   -1.5080 H       1  LIG1        0.0660
     51 H          -4.3474    0.1452   -0.9554 H       1  LIG1        0.0660
     52 H          -2.5866    0.0780   -1.0408 H       1  LIG1        0.0660
     53 H          -3.4171    1.3967   -0.1276 H       1  LIG1        0.0660
     54 H           7.0394   -1.8844    1.0788 H       1  LIG1        0.0831
     55 H           6.7856    0.4033   -2.5135 H       1  LIG1        0.0831
     56 H           8.2099   -0.9203   -0.9234 H       1  LIG1        0.0648
@<TRIPOS>BOND
     1     1     4    2
     2     1     5    2
     3     1     7    1
     4     1    16    1
     5     2    13    1
     6     2    15    1
     7     3    14    1
     8     3    31    1
     9     6    18    1
    10     6    32    1
    11     7    12    1
    12     8    12   ar
    13     8    17   ar
    14     9    14   ar
    15     9    17   ar
    16    10    22   ar
    17    10    33   ar
    18    11    22   ar
    19    11    34   ar
    20    12    13   ar
    21    13    14   ar
    22    15    18   ar
    23    15    21   ar
    24    16    19    2
    25    17    22    1
    26    18    23   ar
    27    19    20    1
    28    20    26   ar
    29    20    27   ar
    30    21    24   ar
    31    23    25   ar
    32    24    25   ar
    33    26    28   ar
    34    27    29   ar
    35    28    30   ar
    36    29    30   ar
    37    33    35   ar
    38    34    35   ar
    39     7    36    1
    40    16    37    1
    41    19    38    1
    42    21    39    1
    43    23    40    1
    44    24    41    1
    45    25    42    1
    46    26    43    1
    47    27    44    1
    48    28    45    1
    49    29    46    1
    50    30    47    1
    51    31    48    1
    52    31    49    1
    53    31    50    1
    54    32    51    1
    55    32    52    1
    56    32    53    1
    57    33    54    1
    58    34    55    1
    59    35    56    1
@<TRIPOS>MOLECULE
9957262
 56 59 0 0 0
SMALL
GASTEIGER

@<TRIPOS>ATOM
      1 S          -0.0849   -3.0115    0.8891 S.O2    1  LIG1        0.0668
      2 O          -0.8717    0.7552    0.6260 O.3     1  LIG1       -0.4435
      3 O           0.5943    2.3116   -0.9253 O.3     1  LIG1       -0.4771
      4 O          -0.5222   -2.5297   -0.4056 O.2     1  LIG1       -0.1505
      5 O          -1.0361   -3.6444    1.7819 O.2     1  LIG1       -0.1505
      6 O          -3.4403   -0.5256    0.7644 O.3     1  LIG1       -0.4914
      7 N           0.5005   -1.6962    1.7687 N.pl3   1  LIG1       -0.1968
      8 N           2.4078   -0.9663    0.7234 N.ar    1  LIG1       -0.2044
      9 N           2.5122    0.9973   -0.6157 N.ar    1  LIG1       -0.1867
     10 N           5.0631   -1.5340   -0.0368 N.ar    1  LIG1       -0.2331
     11 N           5.2580    0.7187   -0.8034 N.ar    1  LIG1       -0.2331
     12 C           1.1178   -0.6836    0.9813 C.ar    1  LIG1        0.1883
     13 C           0.4464    0.4188    0.4781 C.ar    1  LIG1        0.2307
     14 C           1.2123    1.2115   -0.3540 C.ar    1  LIG1        0.2639
     15 C          -1.4976    0.5671    1.8310 C.ar    1  LIG1        0.1702
     16 C           1.2583   -4.0847    0.7265 C.2     1  LIG1        0.0729
     17 C           3.0790   -0.0936   -0.0603 C.ar    1  LIG1        0.2027
     18 C          -2.7381   -0.0847    1.8534 C.ar    1  LIG1        0.1621
     19 C           1.5692   -4.5998   -0.4701 C.2     1  LIG1       -0.0353
     20 C           2.6567   -5.5659   -0.5942 C.ar    1  LIG1       -0.0237
     21 C          -0.9123    1.0041    3.0277 C.ar    1  LIG1       -0.0157
     22 C           4.5334   -0.3191   -0.3148 C.ar    1  LIG1        0.1978
     23 C          -3.3143   -0.4094    3.0836 C.ar    1  LIG1       -0.0163
     24 C          -1.5112    0.6956    4.2493 C.ar    1  LIG1       -0.0581
     25 C          -2.7023   -0.0267    4.2774 C.ar    1  LIG1       -0.0581
     26 C           3.9839   -5.1358   -0.6704 C.ar    1  LIG1       -0.0546
     27 C           2.3690   -6.9347   -0.6019 C.ar    1  LIG1       -0.0546
     28 C           5.0185   -6.0704   -0.7610 C.ar    1  LIG1       -0.0612
     29 C           3.4042   -7.8663   -0.6891 C.ar    1  LIG1       -0.0612
     30 C           4.7257   -7.4342   -0.7698 C.ar    1  LIG1       -0.0617
     31 C           1.3963    2.9709   -1.9008 C.3     1  LIG1        0.0805
     32 C          -3.4209    0.3327   -0.3732 C.3     1  LIG1        0.0790
     33 C           6.3807   -1.6878   -0.2697 C.ar    1  LIG1        0.0315
     34 C           6.5697    0.5062   -1.0100 C.ar    1  LIG1        0.0315
     35 C           7.1908   -0.6917   -0.7589 C.ar    1  LIG1       -0.0254
     36 H          -0.2573   -1.3834    2.3697 H       1  LIG1        0.1753
     37 H           1.7867   -4.3414    1.6336 H       1  LIG1        0.0838
     38 H           1.0264   -4.3505   -1.3776 H       1  LIG1        0.0637
     39 H           0.0214    1.5607    3.0201 H       1  LIG1        0.0655
     40 H          -4.2503   -0.9631    3.1079 H       1  LIG1        0.0655
     41 H          -1.0444    1.0073    5.1807 H       1  LIG1        0.0619
     42 H          -3.1637   -0.2863    5.2272 H       1  LIG1        0.0619
     43 H           4.2173   -4.0738   -0.6566 H       1  LIG1        0.0623
     44 H           1.3411   -7.2818   -0.5321 H       1  LIG1        0.0623
     45 H           6.0487   -5.7326   -0.8208 H       1  LIG1        0.0618
     46 H           3.1768   -8.9291   -0.6911 H       1  LIG1        0.0618
     47 H           5.5322   -8.1610   -0.8365 H       1  LIG1        0.0618
     48 H           0.7975    3.7786   -2.3328 H       1  LIG1        0.0660
     49 H           1.6730    2.2911   -2.7146 H       1  LIG1        0.0660
     50 H           2.2840    3.4214   -1.4442 H       1  LIG1        0.0660
     51 H          -4.3440    0.1610   -0.9354 H       1  LIG1        0.0660
     52 H          -2.5844    0.0765   -1.0300 H       1  LIG1        0.0660
     53 H          -3.3971    1.3936   -0.0985 H       1  LIG1        0.0660
     54 H           6.7794   -2.6723   -0.0419 H       1  LIG1        0.0831
     55 H           7.1226    1.3587   -1.3945 H       1  LIG1        0.0831
     56 H           8.2471   -0.8397   -0.9337 H       1  LIG1        0.0648
@<TRIPOS>BOND
     1     1     4    2
     2     1     5    2
     3     1     7    1
     4     1    16    1
     5     2    13    1
     6     2    15    1
     7     3    14    1
     8     3    31    1
     9     6    18    1
    10     6    32    1
    11     7    12    1
    12     8    12   ar
    13     8    17   ar
    14     9    14   ar
    15     9    17   ar
    16    10    22   ar
    17    10    33   ar
    18    11    22   ar
    19    11    34   ar
    20    12    13   ar
    21    13    14   ar
    22    15    18   ar
    23    15    21   ar
    24    16    19    2
    25    17    22    1
    26    18    23   ar
    27    19    20    1
    28    20    26   ar
    29    20    27   ar
    30    21    24   ar
    31    23    25   ar
    32    24    25   ar
    33    26    28   ar
    34    27    29   ar
    35    28    30   ar
    36    29    30   ar
    37    33    35   ar
    38    34    35   ar
    39     7    36    1
    40    16    37    1
    41    19    38    1
    42    21    39    1
    43    23    40    1
    44    24    41    1
    45    25    42    1
    46    26    43    1
    47    27    44    1
    48    28    45    1
    49    29    46    1
    50    30    47    1
    51    31    48    1
    52    31    49    1
    53    31    50    1
    54    32    51    1
    55    32    52    1
    56    32    53    1
    57    33    54    1
    58    34    55    1
    59    35    56    1
@<TRIPOS>MOLECULE
9957262
 56 59 0 0 0
SMALL
GASTEIGER

@<TRIPOS>ATOM
      1 S          -0.1354   -3.0035    0.8541 S.O2    1  LIG1        0.0668
      2 O          -0.8894    0.7901    0.6206 O.3     1  LIG1       -0.4435
      3 O           0.6060    2.3367   -0.9143 O.3     1  LIG1       -0.4771
      4 O          -0.5064   -2.5302   -0.4627 O.2     1  LIG1       -0.1505
      5 O          -1.1390   -3.6025    1.7139 O.2     1  LIG1       -0.1505
      6 O          -3.4551   -0.5025    0.7545 O.3     1  LIG1       -0.4914
      7 N           0.4416   -1.6911    1.7456 N.pl3   1  LIG1       -0.1968
      8 N           2.3644   -0.9768    0.7225 N.ar    1  LIG1       -0.2044
      9 N           2.5044    0.9941   -0.6033 N.ar    1  LIG1       -0.1867
     10 N           5.2504    0.6645   -0.7792 N.ar    1  LIG1       -0.2331
     11 N           4.9961   -1.5985   -0.0582 N.ar    1  LIG1       -0.2331
     12 C           1.0776   -0.6795    0.9728 C.ar    1  LIG1        0.1883
     13 C           0.4246    0.4360    0.4746 C.ar    1  LIG1        0.2307
     14 C           1.2060    1.2246   -0.3474 C.ar    1  LIG1        0.2639
     15 C          -1.5182    0.5989    1.8236 C.ar    1  LIG1        0.1702
     16 C           1.1893   -4.1121    0.7681 C.2     1  LIG1        0.0729
     17 C           3.0516   -0.1099   -0.0534 C.ar    1  LIG1        0.2027
     18 C          -2.7555   -0.0582    1.8437 C.ar    1  LIG1        0.1621
     19 C           1.7085   -4.4672   -0.4155 C.2     1  LIG1       -0.0353
     20 C           2.7732   -5.4694   -0.5405 C.ar    1  LIG1       -0.0237
     21 C          -0.9336    1.0341    3.0215 C.ar    1  LIG1       -0.0157
     22 C           4.4996   -0.3641   -0.3104 C.ar    1  LIG1        0.1978
     23 C          -3.3296   -0.3887    3.0735 C.ar    1  LIG1       -0.0163
     24 C          -1.5304    0.7196    4.2424 C.ar    1  LIG1       -0.0581
     25 C          -2.7188   -0.0073    4.2684 C.ar    1  LIG1       -0.0581
     26 C           3.8487   -5.5361    0.3549 C.ar    1  LIG1       -0.0546
     27 C           2.7207   -6.3782   -1.6048 C.ar    1  LIG1       -0.0546
     28 C           4.8314   -6.5184    0.2104 C.ar    1  LIG1       -0.0612
     29 C           3.7056   -7.3576   -1.7514 C.ar    1  LIG1       -0.0612
     30 C           4.7571   -7.4312   -0.8402 C.ar    1  LIG1       -0.0617
     31 C           1.4144    2.9806   -1.8947 C.3     1  LIG1        0.0805
     32 C          -3.4312    0.3494   -0.3877 C.3     1  LIG1        0.0790
     33 C           6.5540    0.4190   -0.9985 C.ar    1  LIG1        0.0315
     34 C           6.3052   -1.7872   -0.3095 C.ar    1  LIG1        0.0315
     35 C           7.1405   -0.8031   -0.7808 C.ar    1  LIG1       -0.0254
     36 H          -0.3246   -1.3768    2.3355 H       1  LIG1        0.1753
     37 H           1.5202   -4.5234    1.7092 H       1  LIG1        0.0838
     38 H           1.3230   -4.0560   -1.3456 H       1  LIG1        0.0637
     39 H          -0.0011    1.5929    3.0145 H       1  LIG1        0.0655
     40 H          -4.2630   -0.9473    3.0970 H       1  LIG1        0.0655
     41 H          -1.0642    1.0300    5.1743 H       1  LIG1        0.0619
     42 H          -3.1784   -0.2725    5.2180 H       1  LIG1        0.0619
     43 H           3.9360   -4.8215    1.1702 H       1  LIG1        0.0623
     44 H           1.9022   -6.3418   -2.3205 H       1  LIG1        0.0623
     45 H           5.6536   -6.5702    0.9186 H       1  LIG1        0.0618
     46 H           3.6470   -8.0651   -2.5742 H       1  LIG1        0.0618
     47 H           5.5194   -8.1981   -0.9507 H       1  LIG1        0.0618
     48 H           0.8256    3.7950   -2.3285 H       1  LIG1        0.0660
     49 H           1.6793    2.2942   -2.7066 H       1  LIG1        0.0660
     50 H           2.3094    3.4208   -1.4423 H       1  LIG1        0.0660
     51 H          -4.3503    0.1717   -0.9542 H       1  LIG1        0.0660
     52 H          -2.5899    0.0917   -1.0382 H       1  LIG1        0.0660
     53 H          -3.4118    1.4118   -0.1186 H       1  LIG1        0.0660
     54 H           7.1292    1.2635   -1.3673 H       1  LIG1        0.0831
     55 H           6.6740   -2.7899   -0.1133 H       1  LIG1        0.0831
     56 H           8.1906   -0.9782   -0.9690 H       1  LIG1        0.0648
@<TRIPOS>BOND
     1     1     4    2
     2     1     5    2
     3     1     7    1
     4     1    16    1
     5     2    13    1
     6     2    15    1
     7     3    14    1
     8     3    31    1
     9     6    18    1
    10     6    32    1
    11     7    12    1
    12     8    12   ar
    13     8    17   ar
    14     9    14   ar
    15     9    17   ar
    16    10    22   ar
    17    10    33   ar
    18    11    22   ar
    19    11    34   ar
    20    12    13   ar
    21    13    14   ar
    22    15    18   ar
    23    15    21   ar
    24    16    19    2
    25    17    22    1
    26    18    23   ar
    27    19    20    1
    28    20    26   ar
    29    20    27   ar
    30    21    24   ar
    31    23    25   ar
    32    24    25   ar
    33    26    28   ar
    34    27    29   ar
    35    28    30   ar
    36    29    30   ar
    37    33    35   ar
    38    34    35   ar
    39     7    36    1
    40    16    37    1
    41    19    38    1
    42    21    39    1
    43    23    40    1
    44    24    41    1
    45    25    42    1
    46    26    43    1
    47    27    44    1
    48    28    45    1
    49    29    46    1
    50    30    47    1
    51    31    48    1
    52    31    49    1
    53    31    50    1
    54    32    51    1
    55    32    52    1
    56    32    53    1
    57    33    54    1
    58    34    55    1
    59    35    56    1
@<TRIPOS>MOLECULE
9957262
 56 59 0 0 0
SMALL
GASTEIGER

@<TRIPOS>ATOM
      1 S          -0.1260   -3.0048    0.8708 S.O2    1  LIG1        0.0668
      2 O          -0.8890    0.7857    0.6261 O.3     1  LIG1       -0.4435
      3 O           0.6023    2.3312   -0.9130 O.3     1  LIG1       -0.4771
      4 O          -0.4991   -2.5325   -0.4475 O.2     1  LIG1       -0.1505
      5 O          -1.1234   -3.6074    1.7341 O.2     1  LIG1       -0.1505
      6 O          -3.4540   -0.5068    0.7602 O.3     1  LIG1       -0.4914
      7 N           0.4483   -1.6895    1.7594 N.pl3   1  LIG1       -0.1968
      8 N           2.3685   -0.9740    0.7317 N.ar    1  LIG1       -0.2044
      9 N           2.5032    0.9922   -0.6011 N.ar    1  LIG1       -0.1867
     10 N           5.0005   -1.5939   -0.0454 N.ar    1  LIG1       -0.2331
     11 N           5.2483    0.6634   -0.7856 N.ar    1  LIG1       -0.2331
     12 C           1.0813   -0.6784    0.9823 C.ar    1  LIG1        0.1883
     13 C           0.4257    0.4340    0.4810 C.ar    1  LIG1        0.2307
     14 C           1.2048    1.2214   -0.3439 C.ar    1  LIG1        0.2639
     15 C          -1.5183    0.5964    1.8291 C.ar    1  LIG1        0.1702
     16 C           1.2014   -4.1093    0.7815 C.2     1  LIG1        0.0729
     17 C           3.0530   -0.1091   -0.0483 C.ar    1  LIG1        0.2027
     18 C          -2.7557   -0.0612    1.8495 C.ar    1  LIG1        0.1621
     19 C           1.7129   -4.4686   -0.4044 C.2     1  LIG1       -0.0353
     20 C           2.7775   -5.4705   -0.5339 C.ar    1  LIG1       -0.0237
     21 C          -0.9350    1.0343    3.0265 C.ar    1  LIG1       -0.0157
     22 C           4.5010   -0.3627   -0.3065 C.ar    1  LIG1        0.1978
     23 C          -3.3307   -0.3892    3.0793 C.ar    1  LIG1       -0.0163
     24 C          -1.5331    0.7222    4.2475 C.ar    1  LIG1       -0.0581
     25 C          -2.7210   -0.0052    4.2741 C.ar    1  LIG1       -0.0581
     26 C           3.8559   -5.5390    0.3581 C.ar    1  LIG1       -0.0546
     27 C           2.7225   -6.3769   -1.6000 C.ar    1  LIG1       -0.0546
     28 C           4.8384   -6.5210    0.2085 C.ar    1  LIG1       -0.0612
     29 C           3.7070   -7.3559   -1.7516 C.ar    1  LIG1       -0.0612
     30 C           4.7612   -7.4313   -0.8437 C.ar    1  LIG1       -0.0617
     31 C           1.4106    2.9765   -1.8928 C.3     1  LIG1        0.0805
     32 C          -3.4310    0.3448   -0.3821 C.3     1  LIG1        0.0790
     33 C           6.3092   -1.7820   -0.2977 C.ar    1  LIG1        0.0315
     34 C           6.5522    0.4192   -1.0050 C.ar    1  LIG1        0.0315
     35 C           7.1413   -0.8010   -0.7789 C.ar    1  LIG1       -0.0254
     36 H          -0.3170   -1.3748    2.3487 H       1  LIG1        0.1753
     37 H           1.5405   -4.5173    1.7222 H       1  LIG1        0.0838
     38 H           1.3187   -4.0622   -1.3336 H       1  LIG1        0.0637
     39 H          -0.0030    1.5937    3.0192 H       1  LIG1        0.0655
     40 H          -4.2638   -0.9480    3.1030 H       1  LIG1        0.0655
     41 H          -1.0677    1.0348    5.1793 H       1  LIG1        0.0619
     42 H          -3.1815   -0.2682    5.2234 H       1  LIG1        0.0619
     43 H           3.9456   -4.8262    1.1749 H       1  LIG1        0.0623
     44 H           1.9017   -6.3394   -2.3133 H       1  LIG1        0.0623
     45 H           5.6626   -6.5741    0.9148 H       1  LIG1        0.0618
     46 H           3.6462   -8.0617   -2.5758 H       1  LIG1        0.0618
     47 H           5.5232   -8.1977   -0.9580 H       1  LIG1        0.0618
     48 H           0.8209    3.7897   -2.3272 H       1  LIG1        0.0660
     49 H           1.6774    2.2902   -2.7044 H       1  LIG1        0.0660
     50 H           2.3045    3.4181   -1.4396 H       1  LIG1        0.0660
     51 H          -4.3504    0.1664   -0.9484 H       1  LIG1        0.0660
     52 H          -2.5900    0.0878   -1.0327 H       1  LIG1        0.0660
     53 H          -3.4126    1.4073   -0.1132 H       1  LIG1        0.0660
     54 H           6.6808   -2.7822   -0.0941 H       1  LIG1        0.0831
     55 H           7.1248    1.2621   -1.3814 H       1  LIG1        0.0831
     56 H           8.1917   -0.9742   -0.9675 H       1  LIG1        0.0648
@<TRIPOS>BOND
     1     1     4    2
     2     1     5    2
     3     1     7    1
     4     1    16    1
     5     2    13    1
     6     2    15    1
     7     3    14    1
     8     3    31    1
     9     6    18    1
    10     6    32    1
    11     7    12    1
    12     8    12   ar
    13     8    17   ar
    14     9    14   ar
    15     9    17   ar
    16    10    22   ar
    17    10    33   ar
    18    11    22   ar
    19    11    34   ar
    20    12    13   ar
    21    13    14   ar
    22    15    18   ar
    23    15    21   ar
    24    16    19    2
    25    17    22    1
    26    18    23   ar
    27    19    20    1
    28    20    26   ar
    29    20    27   ar
    30    21    24   ar
    31    23    25   ar
    32    24    25   ar
    33    26    28   ar
    34    27    29   ar
    35    28    30   ar
    36    29    30   ar
    37    33    35   ar
    38    34    35   ar
    39     7    36    1
    40    16    37    1
    41    19    38    1
    42    21    39    1
    43    23    40    1
    44    24    41    1
    45    25    42    1
    46    26    43    1
    47    27    44    1
    48    28    45    1
    49    29    46    1
    50    30    47    1
    51    31    48    1
    52    31    49    1
    53    31    50    1
    54    32    51    1
    55    32    52    1
    56    32    53    1
    57    33    54    1
    58    34    55    1
    59    35    56    1
@<TRIPOS>MOLECULE
9957262
 56 59 0 0 0
SMALL
GASTEIGER

@<TRIPOS>ATOM
      1 S          -0.1265   -3.0018    0.8593 S.O2    1  LIG1        0.0668
      2 O          -0.8867    0.7937    0.6233 O.3     1  LIG1       -0.4435
      3 O           0.6092    2.3379   -0.9134 O.3     1  LIG1       -0.4771
      4 O          -0.4982   -2.5291   -0.4599 O.2     1  LIG1       -0.1505
      5 O          -1.1285   -3.6043    1.7167 O.2     1  LIG1       -0.1505
      6 O          -3.4517   -0.5006    0.7566 O.3     1  LIG1       -0.4914
      7 N           0.4433   -1.6870    1.7508 N.pl3   1  LIG1       -0.1968
      8 N           2.3668   -0.9737    0.7281 N.ar    1  LIG1       -0.2044
      9 N           2.5069    0.9945   -0.6019 N.ar    1  LIG1       -0.1867
     10 N           4.9982   -1.5976   -0.0471 N.ar    1  LIG1       -0.2331
     11 N           5.2507    0.6595   -0.7873 N.ar    1  LIG1       -0.2331
     12 C           1.0800   -0.6755    0.9784 C.ar    1  LIG1        0.1883
     13 C           0.4273    0.4393    0.4780 C.ar    1  LIG1        0.2307
     14 C           1.2088    1.2259   -0.3452 C.ar    1  LIG1        0.2639
     15 C          -1.5163    0.6027    1.8260 C.ar    1  LIG1        0.1702
     16 C           1.2021   -4.1048    0.7740 C.2     1  LIG1        0.0729
     17 C           3.0539   -0.1089   -0.0502 C.ar    1  LIG1        0.2027
     18 C          -2.7533   -0.0554    1.8459 C.ar    1  LIG1        0.1621
     19 C           1.7099   -4.4721   -0.4095 C.2     1  LIG1       -0.0353
     20 C           2.7770   -5.4714   -0.5361 C.ar    1  LIG1       -0.0237
     21 C          -0.9324    1.0385    3.0240 C.ar    1  LIG1       -0.0157
     22 C           4.5014   -0.3655   -0.3085 C.ar    1  LIG1        0.1978
     23 C          -3.3277   -0.3856    3.0755 C.ar    1  LIG1       -0.0163
     24 C          -1.5297    0.7243    4.2447 C.ar    1  LIG1       -0.0581
     25 C          -2.7175   -0.0034    4.2708 C.ar    1  LIG1       -0.0581
     26 C           2.7178   -6.3908   -1.5907 C.ar    1  LIG1       -0.0546
     27 C           3.8625   -5.5240    0.3485 C.ar    1  LIG1       -0.0546
     28 C           3.7050   -7.3678   -1.7374 C.ar    1  LIG1       -0.0612
     29 C           4.8478   -6.5039    0.2036 C.ar    1  LIG1       -0.0612
     30 C           4.7661   -7.4276   -0.8365 C.ar    1  LIG1       -0.0617
     31 C           1.4183    2.9805   -1.8941 C.3     1  LIG1        0.0805
     32 C          -3.4272    0.3498   -0.3865 C.3     1  LIG1        0.0790
     33 C           6.3064   -1.7888   -0.3004 C.ar    1  LIG1        0.0315
     34 C           6.5537    0.4115   -1.0085 C.ar    1  LIG1        0.0315
     35 C           7.1408   -0.8084   -0.7817 C.ar    1  LIG1       -0.0254
     36 H          -0.3253   -1.3736    2.3375 H       1  LIG1        0.1753
     37 H           1.5454   -4.5030    1.7182 H       1  LIG1        0.0838
     38 H           1.3121   -4.0742   -1.3410 H       1  LIG1        0.0637
     39 H          -0.0005    1.5983    3.0171 H       1  LIG1        0.0655
     40 H          -4.2606   -0.9447    3.0990 H       1  LIG1        0.0655
     41 H          -1.0640    1.0358    5.1767 H       1  LIG1        0.0619
     42 H          -3.1775   -0.2680    5.2200 H       1  LIG1        0.0619
     43 H           1.8916   -6.3652   -2.2981 H       1  LIG1        0.0623
     44 H           3.9553   -4.8003    1.1554 H       1  LIG1        0.0623
     45 H           3.6409   -8.0840   -2.5524 H       1  LIG1        0.0618
     46 H           5.6776   -6.5447    0.9040 H       1  LIG1        0.0618
     47 H           5.5302   -8.1923   -0.9470 H       1  LIG1        0.0618
     48 H           0.8304    3.7950   -2.3284 H       1  LIG1        0.0660
     49 H           1.6825    2.2931   -2.7055 H       1  LIG1        0.0660
     50 H           2.3138    3.4199   -1.4419 H       1  LIG1        0.0660
     51 H          -4.3461    0.1711   -0.9536 H       1  LIG1        0.0660
     52 H          -2.5856    0.0918   -1.0359 H       1  LIG1        0.0660
     53 H          -3.4089    1.4125   -0.1185 H       1  LIG1        0.0660
     54 H           6.6759   -2.7893   -0.0958 H       1  LIG1        0.0831
     55 H           7.1285    1.2533   -1.3852 H       1  LIG1        0.0831
     56 H           8.1902   -0.9854   -0.9710 H       1  LIG1        0.0648
@<TRIPOS>BOND
     1     1     4    2
     2     1     5    2
     3     1     7    1
     4     1    16    1
     5     2    13    1
     6     2    15    1
     7     3    14    1
     8     3    31    1
     9     6    18    1
    10     6    32    1
    11     7    12    1
    12     8    12   ar
    13     8    17   ar
    14     9    14   ar
    15     9    17   ar
    16    10    22   ar
    17    10    33   ar
    18    11    22   ar
    19    11    34   ar
    20    12    13   ar
    21    13    14   ar
    22    15    18   ar
    23    15    21   ar
    24    16    19    2
    25    17    22    1
    26    18    23   ar
    27    19    20    1
    28    20    26   ar
    29    20    27   ar
    30    21    24   ar
    31    23    25   ar
    32    24    25   ar
    33    26    28   ar
    34    27    29   ar
    35    28    30   ar
    36    29    30   ar
    37    33    35   ar
    38    34    35   ar
    39     7    36    1
    40    16    37    1
    41    19    38    1
    42    21    39    1
    43    23    40    1
    44    24    41    1
    45    25    42    1
    46    26    43    1
    47    27    44    1
    48    28    45    1
    49    29    46    1
    50    30    47    1
    51    31    48    1
    52    31    49    1
    53    31    50    1
    54    32    51    1
    55    32    52    1
    56    32    53    1
    57    33    54    1
    58    34    55    1
    59    35    56    1
@<TRIPOS>MOLECULE
9957262
 56 59 0 0 0
SMALL
GASTEIGER

@<TRIPOS>ATOM
      1 S          -0.1339   -3.0084    0.8694 S.O2    1  LIG1        0.0668
      2 O          -0.8970    0.7637    0.5740 O.3     1  LIG1       -0.4435
      3 O           0.5514    2.2448   -1.0652 O.3     1  LIG1       -0.4771
      4 O          -0.4306   -2.5839   -0.4829 O.2     1  LIG1       -0.1505
      5 O          -1.1944   -3.5217    1.7168 O.2     1  LIG1       -0.1505
      6 O          -3.4549   -0.5267    0.7447 O.3     1  LIG1       -0.4914
      7 N           0.4687   -1.6885    1.7310 N.pl3   1  LIG1       -0.1968
      8 N           2.3688   -0.9844    0.6666 N.ar    1  LIG1       -0.2044
      9 N           2.4689    0.9394   -0.7294 N.ar    1  LIG1       -0.1867
     10 N           5.0005   -1.5961   -0.1081 N.ar    1  LIG1       -0.2331
     11 N           5.2299    0.6586   -0.8645 N.ar    1  LIG1       -0.2331
     12 C           1.0847   -0.6866    0.9319 C.ar    1  LIG1        0.1883
     13 C           0.4145    0.4081    0.4123 C.ar    1  LIG1        0.2307
     14 C           1.1714    1.1637   -0.4612 C.ar    1  LIG1        0.2639
     15 C          -1.5120    0.5864    1.7860 C.ar    1  LIG1        0.1702
     16 C           1.1557   -4.1673    0.8337 C.2     1  LIG1        0.0729
     17 C           3.0370   -0.1345   -0.1434 C.ar    1  LIG1        0.2027
     18 C          -2.7493   -0.0705    1.8252 C.ar    1  LIG1        0.1621
     19 C           0.8479   -5.4712    0.8817 C.2     1  LIG1       -0.0353
     20 C           1.8244   -6.5672    0.9127 C.ar    1  LIG1       -0.0237
     21 C          -0.9192    1.0394    2.9728 C.ar    1  LIG1       -0.0157
     22 C           4.4892   -0.3735   -0.3895 C.ar    1  LIG1        0.1978
     23 C          -3.3144   -0.3844    3.0630 C.ar    1  LIG1       -0.0163
     24 C          -1.5078    0.7424    4.2026 C.ar    1  LIG1       -0.0581
     25 C          -2.6953    0.0148    4.2479 C.ar    1  LIG1       -0.0581
     26 C           3.0634   -6.4980    0.2648 C.ar    1  LIG1       -0.0546
     27 C           1.4763   -7.7530    1.5760 C.ar    1  LIG1       -0.0546
     28 C           3.9430   -7.5840    0.2991 C.ar    1  LIG1       -0.0612
     29 C           2.3554   -8.8371    1.6112 C.ar    1  LIG1       -0.0612
     30 C           3.5903   -8.7514    0.9736 C.ar    1  LIG1       -0.0617
     31 C           1.2435    2.7101   -2.2204 C.3     1  LIG1        0.0805
     32 C          -3.4579    0.3290   -0.3951 C.3     1  LIG1        0.0790
     33 C           6.3196   -1.7626   -0.3216 C.ar    1  LIG1        0.0315
     34 C           6.5425    0.4335   -1.0509 C.ar    1  LIG1        0.0315
     35 C           7.1468   -0.7719   -0.7935 C.ar    1  LIG1       -0.0254
     36 H          -0.2813   -1.3689    2.3387 H       1  LIG1        0.1753
     37 H           2.1650   -3.7841    0.7984 H       1  LIG1        0.0838
     38 H          -0.1967   -5.7800    0.9407 H       1  LIG1        0.0637
     39 H           0.0119    1.5999    2.9513 H       1  LIG1        0.0655
     40 H          -4.2469   -0.9434    3.1007 H       1  LIG1        0.0655
     41 H          -1.0358    1.0671    5.1269 H       1  LIG1        0.0619
     42 H          -3.1481   -0.2366    5.2042 H       1  LIG1        0.0619
     43 H           3.3565   -5.6066   -0.2842 H       1  LIG1        0.0623
     44 H           0.5154   -7.8412    2.0803 H       1  LIG1        0.0623
     45 H           4.9023   -7.5194   -0.2078 H       1  LIG1        0.0618
     46 H           2.0735   -9.7474    2.1345 H       1  LIG1        0.0618
     47 H           4.2744   -9.5954    0.9975 H       1  LIG1        0.0618
     48 H           0.6199    3.4727   -2.6971 H       1  LIG1        0.0660
     49 H           1.3932    1.9032   -2.9470 H       1  LIG1        0.0660
     50 H           2.1960    3.1778   -1.9501 H       1  LIG1        0.0660
     51 H          -4.3846    0.1445   -0.9472 H       1  LIG1        0.0660
     52 H          -2.6252    0.0813   -1.0598 H       1  LIG1        0.0660
     53 H          -3.4435    1.3909   -0.1232 H       1  LIG1        0.0660
     54 H           6.7050   -2.7517   -0.0909 H       1  LIG1        0.0831
     55 H           7.1101    1.2811   -1.4237 H       1  LIG1        0.0831
     56 H           8.2050   -0.9298   -0.9510 H       1  LIG1        0.0648
@<TRIPOS>BOND
     1     1     4    2
     2     1     5    2
     3     1     7    1
     4     1    16    1
     5     2    13    1
     6     2    15    1
     7     3    14    1
     8     3    31    1
     9     6    18    1
    10     6    32    1
    11     7    12    1
    12     8    12   ar
    13     8    17   ar
    14     9    14   ar
    15     9    17   ar
    16    10    22   ar
    17    10    33   ar
    18    11    22   ar
    19    11    34   ar
    20    12    13   ar
    21    13    14   ar
    22    15    18   ar
    23    15    21   ar
    24    16    19    2
    25    17    22    1
    26    18    23   ar
    27    19    20    1
    28    20    26   ar
    29    20    27   ar
    30    21    24   ar
    31    23    25   ar
    32    24    25   ar
    33    26    28   ar
    34    27    29   ar
    35    28    30   ar
    36    29    30   ar
    37    33    35   ar
    38    34    35   ar
    39     7    36    1
    40    16    37    1
    41    19    38    1
    42    21    39    1
    43    23    40    1
    44    24    41    1
    45    25    42    1
    46    26    43    1
    47    27    44    1
    48    28    45    1
    49    29    46    1
    50    30    47    1
    51    31    48    1
    52    31    49    1
    53    31    50    1
    54    32    51    1
    55    32    52    1
    56    32    53    1
    57    33    54    1
    58    34    55    1
    59    35    56    1
@<TRIPOS>MOLECULE
9957262
 56 59 0 0 0
SMALL
GASTEIGER

@<TRIPOS>ATOM
      1 S          -0.0890   -2.8004    1.0120 S.O2    1  LIG1        0.0668
      2 O          -0.9161    0.7131    0.4522 O.3     1  LIG1       -0.4435
      3 O           0.7188    2.5665   -1.0027 O.3     1  LIG1       -0.4771
      4 O           0.7950   -3.1159   -0.0900 O.2     1  LIG1       -0.1505
      5 O          -1.5077   -2.6203    0.7657 O.2     1  LIG1       -0.1505
      6 O          -3.0767    2.6815    0.8454 O.3     1  LIG1       -0.4914
      7 N           0.3832   -1.3463    1.7455 N.pl3   1  LIG1       -0.1968
      8 N           2.3986   -0.7111    0.7902 N.ar    1  LIG1       -0.2044
      9 N           2.5740    1.1892   -0.6324 N.ar    1  LIG1       -0.1867
     10 N           5.1383    0.3390   -1.3424 N.ar    1  LIG1       -0.2331
     11 N           5.2174   -0.9028    0.6968 N.ar    1  LIG1       -0.2331
     12 C           1.0866   -0.4579    0.8804 C.ar    1  LIG1        0.1883
     13 C           0.4264    0.5660    0.2314 C.ar    1  LIG1        0.2307
     14 C           1.2557    1.4086   -0.4776 C.ar    1  LIG1        0.2639
     15 C          -1.7265    1.1320   -0.5789 C.ar    1  LIG1        0.1702
     16 C           0.0645   -4.0416    2.2137 C.2     1  LIG1        0.0729
     17 C           3.1055    0.1104   -0.0122 C.ar    1  LIG1        0.2027
     18 C          -2.7451    2.0648   -0.3313 C.ar    1  LIG1        0.1621
     19 C           0.6244   -3.7891    3.4087 C.2     1  LIG1       -0.0353
     20 C           0.7592   -4.7711    4.4966 C.ar    1  LIG1       -0.0237
     21 C          -1.5958    0.5672   -1.8605 C.ar    1  LIG1       -0.0157
     22 C           4.5548   -0.1677   -0.2276 C.ar    1  LIG1        0.1978
     23 C          -3.5784    2.4521   -1.3908 C.ar    1  LIG1       -0.0163
     24 C          -2.4236    0.9779   -2.9059 C.ar    1  LIG1       -0.0581
     25 C          -3.4131    1.9256   -2.6722 C.ar    1  LIG1       -0.0581
     26 C           1.7935   -4.6002    5.4276 C.ar    1  LIG1       -0.0546
     27 C          -0.1434   -5.8265    4.6855 C.ar    1  LIG1       -0.0546
     28 C           1.9378   -5.4754    6.5073 C.ar    1  LIG1       -0.0612
     29 C           0.0020   -6.7037    5.7649 C.ar    1  LIG1       -0.0612
     30 C           1.0427   -6.5292    6.6739 C.ar    1  LIG1       -0.0617
     31 C           1.6643    3.3900   -1.6766 C.3     1  LIG1        0.0805
     32 C          -2.2192    2.5345    1.9653 C.3     1  LIG1        0.0790
     33 C           6.4419    0.0661   -1.5250 C.ar    1  LIG1        0.0315
     34 C           6.5220   -1.1355    0.4632 C.ar    1  LIG1        0.0315
     35 C           7.1923   -0.6731   -0.6435 C.ar    1  LIG1       -0.0254
     36 H          -0.4838   -0.9149    2.0699 H       1  LIG1        0.1753
     37 H          -0.3240   -5.0093    1.9324 H       1  LIG1        0.0838
     38 H           1.0339   -2.8065    3.6329 H       1  LIG1        0.0637
     39 H          -0.8493   -0.1977   -2.0604 H       1  LIG1        0.0655
     40 H          -4.3683    3.1784   -1.2109 H       1  LIG1        0.0655
     41 H          -2.2998    0.5517   -3.8981 H       1  LIG1        0.0619
     42 H          -4.0650    2.2481   -3.4798 H       1  LIG1        0.0619
     43 H           2.5041   -3.7827    5.3199 H       1  LIG1        0.0623
     44 H          -0.9808   -5.9764    4.0093 H       1  LIG1        0.0623
     45 H           2.7473   -5.3315    7.2181 H       1  LIG1        0.0618
     46 H          -0.7038   -7.5198    5.8991 H       1  LIG1        0.0618
     47 H           1.1528   -7.2096    7.5143 H       1  LIG1        0.0618
     48 H           1.1309    4.2677   -2.0539 H       1  LIG1        0.0660
     49 H           2.1039    2.8714   -2.5352 H       1  LIG1        0.0660
     50 H           2.4405    3.7437   -0.9890 H       1  LIG1        0.0660
     51 H          -2.6029    3.1779    2.7630 H       1  LIG1        0.0660
     52 H          -1.2028    2.8702    1.7376 H       1  LIG1        0.0660
     53 H          -2.2367    1.5078    2.3443 H       1  LIG1        0.0660
     54 H           6.8782    0.4727   -2.4330 H       1  LIG1        0.0831
     55 H           7.0296   -1.7270    1.2200 H       1  LIG1        0.0831
     56 H           8.2400   -0.8779   -0.8109 H       1  LIG1        0.0648
@<TRIPOS>BOND
     1     1     4    2
     2     1     5    2
     3     1     7    1
     4     1    16    1
     5     2    13    1
     6     2    15    1
     7     3    14    1
     8     3    31    1
     9     6    18    1
    10     6    32    1
    11     7    12    1
    12     8    12   ar
    13     8    17   ar
    14     9    14   ar
    15     9    17   ar
    16    10    22   ar
    17    10    33   ar
    18    11    22   ar
    19    11    34   ar
    20    12    13   ar
    21    13    14   ar
    22    15    18   ar
    23    15    21   ar
    24    16    19    2
    25    17    22    1
    26    18    23   ar
    27    19    20    1
    28    20    26   ar
    29    20    27   ar
    30    21    24   ar
    31    23    25   ar
    32    24    25   ar
    33    26    28   ar
    34    27    29   ar
    35    28    30   ar
    36    29    30   ar
    37    33    35   ar
    38    34    35   ar
    39     7    36    1
    40    16    37    1
    41    19    38    1
    42    21    39    1
    43    23    40    1
    44    24    41    1
    45    25    42    1
    46    26    43    1
    47    27    44    1
    48    28    45    1
    49    29    46    1
    50    30    47    1
    51    31    48    1
    52    31    49    1
    53    31    50    1
    54    32    51    1
    55    32    52    1
    56    32    53    1
    57    33    54    1
    58    34    55    1
    59    35    56    1
@<TRIPOS>MOLECULE
9957262
 56 59 0 0 0
SMALL
GASTEIGER

@<TRIPOS>ATOM
      1 S          -0.1017   -3.0173    0.9360 S.O2    1  LIG1        0.0668
      2 O          -0.8785    0.7460    0.5866 O.3     1  LIG1       -0.4435
      3 O           0.5947    2.2444   -1.0081 O.3     1  LIG1       -0.4771
      4 O          -0.5062   -2.5637   -0.3805 O.2     1  LIG1       -0.1505
      5 O          -1.0805   -3.6148    1.8243 O.2     1  LIG1       -0.1505
      6 O          -3.4280   -0.6595    0.7493 O.3     1  LIG1       -0.4914
      7 N           0.4846   -1.6883    1.7965 N.pl3   1  LIG1       -0.1968
      8 N           2.3972   -0.9802    0.7536 N.ar    1  LIG1       -0.2044
      9 N           2.5024    0.9204   -0.6742 N.ar    1  LIG1       -0.1867
     10 N           5.0644    0.1494   -1.4446 N.ar    1  LIG1       -0.2331
     11 N           5.2141   -1.1251    0.5715 N.ar    1  LIG1       -0.2331
     12 C           1.1069   -0.6895    0.9954 C.ar    1  LIG1        0.1883
     13 C           0.4386    0.3962    0.4528 C.ar    1  LIG1        0.2307
     14 C           1.2072    1.1567   -0.4075 C.ar    1  LIG1        0.2639
     15 C          -1.5208    0.5549    1.7816 C.ar    1  LIG1        0.1702
     16 C           1.2284   -4.1172    0.8295 C.2     1  LIG1        0.0729
     17 C           3.0661   -0.1488   -0.0753 C.ar    1  LIG1        0.2027
     18 C          -2.7351   -0.1444    1.8100 C.ar    1  LIG1        0.1621
     19 C           1.7181   -4.4850   -0.3632 C.2     1  LIG1       -0.0353
     20 C           2.7837   -5.4833   -0.5091 C.ar    1  LIG1       -0.0237
     21 C          -0.9652    1.0529    2.9704 C.ar    1  LIG1       -0.0157
     22 C           4.5128   -0.4002   -0.3336 C.ar    1  LIG1        0.1978
     23 C          -3.3156   -0.4338    3.0493 C.ar    1  LIG1       -0.0163
     24 C          -1.5661    0.7693    4.1963 C.ar    1  LIG1       -0.0581
     25 C          -2.7335    0.0123    4.2367 C.ar    1  LIG1       -0.0581
     26 C           3.8689   -5.5581    0.3743 C.ar    1  LIG1       -0.0546
     27 C           2.7241   -6.3792   -1.5842 C.ar    1  LIG1       -0.0546
     28 C           4.8532   -6.5352    0.2069 C.ar    1  LIG1       -0.0612
     29 C           3.7101   -7.3538   -1.7529 C.ar    1  LIG1       -0.0612
     30 C           4.7712   -7.4350   -0.8537 C.ar    1  LIG1       -0.0617
     31 C           1.4154    2.9028   -1.9683 C.3     1  LIG1        0.0805
     32 C          -3.2375   -0.0527   -0.5230 C.3     1  LIG1        0.0790
     33 C           6.3793   -0.0541   -1.6370 C.ar    1  LIG1        0.0315
     34 C           6.5282   -1.2845    0.3297 C.ar    1  LIG1        0.0315
     35 C           7.1699   -0.7662   -0.7693 C.ar    1  LIG1       -0.0254
     36 H          -0.2710   -1.3642    2.3941 H       1  LIG1        0.1753
     37 H           1.5864   -4.5151    1.7675 H       1  LIG1        0.0838
     38 H           1.3023   -4.0882   -1.2871 H       1  LIG1        0.0637
     39 H          -0.0516    1.6421    2.9514 H       1  LIG1        0.0655
     40 H          -4.2349   -1.0152    3.0862 H       1  LIG1        0.0655
     41 H          -1.1211    1.1307    5.1204 H       1  LIG1        0.0619
     42 H          -3.2007   -0.2257    5.1892 H       1  LIG1        0.0619
     43 H           3.9637   -4.8551    1.1988 H       1  LIG1        0.0623
     44 H           1.8985   -6.3372   -2.2917 H       1  LIG1        0.0623
     45 H           5.6838   -6.5920    0.9056 H       1  LIG1        0.0618
     46 H           3.6455   -8.0511   -2.5839 H       1  LIG1        0.0618
     47 H           5.5352   -8.1973   -0.9817 H       1  LIG1        0.0618
     48 H           0.8264    3.7130   -2.4090 H       1  LIG1        0.0660
     49 H           1.7042    2.2233   -2.7777 H       1  LIG1        0.0660
     50 H           2.2961    3.3508   -1.4956 H       1  LIG1        0.0660
     51 H          -4.0872   -0.3313   -1.1542 H       1  LIG1        0.0660
     52 H          -2.3354   -0.4389   -1.0054 H       1  LIG1        0.0660
     53 H          -3.2233    1.0410   -0.4604 H       1  LIG1        0.0660
     54 H           6.7905    0.3918   -2.5380 H       1  LIG1        0.0831
     55 H           7.0698   -1.8583    1.0761 H       1  LIG1        0.0831
     56 H           8.2279   -0.9084   -0.9401 H       1  LIG1        0.0648
@<TRIPOS>BOND
     1     1     4    2
     2     1     5    2
     3     1     7    1
     4     1    16    1
     5     2    13    1
     6     2    15    1
     7     3    14    1
     8     3    31    1
     9     6    18    1
    10     6    32    1
    11     7    12    1
    12     8    12   ar
    13     8    17   ar
    14     9    14   ar
    15     9    17   ar
    16    10    22   ar
    17    10    33   ar
    18    11    22   ar
    19    11    34   ar
    20    12    13   ar
    21    13    14   ar
    22    15    18   ar
    23    15    21   ar
    24    16    19    2
    25    17    22    1
    26    18    23   ar
    27    19    20    1
    28    20    26   ar
    29    20    27   ar
    30    21    24   ar
    31    23    25   ar
    32    24    25   ar
    33    26    28   ar
    34    27    29   ar
    35    28    30   ar
    36    29    30   ar
    37    33    35   ar
    38    34    35   ar
    39     7    36    1
    40    16    37    1
    41    19    38    1
    42    21    39    1
    43    23    40    1
    44    24    41    1
    45    25    42    1
    46    26    43    1
    47    27    44    1
    48    28    45    1
    49    29    46    1
    50    30    47    1
    51    31    48    1
    52    31    49    1
    53    31    50    1
    54    32    51    1
    55    32    52    1
    56    32    53    1
    57    33    54    1
    58    34    55    1
    59    35    56    1
@<TRIPOS>MOLECULE
9957262
 56 59 0 0 0
SMALL
GASTEIGER

@<TRIPOS>ATOM
      1 S          -0.3310   -2.7694    0.6890 S.O2    1  LIG1        0.0668
      2 O          -0.8942    0.5997    0.4347 O.3     1  LIG1       -0.4435
      3 O           0.7286    2.5784   -0.8240 O.3     1  LIG1       -0.4771
      4 O           0.0358   -4.0277    1.3086 O.2     1  LIG1       -0.1505
      5 O          -0.0762   -2.5529   -0.7194 O.2     1  LIG1       -0.1505
      6 O          -3.1015    2.4896    0.8597 O.3     1  LIG1       -0.4914
      7 N           0.5100   -1.6011    1.5838 N.pl3   1  LIG1       -0.1968
      8 N           2.4494   -0.7920    0.7320 N.ar    1  LIG1       -0.2044
      9 N           2.6143    1.2304   -0.5029 N.ar    1  LIG1       -0.1867
     10 N           5.0936   -1.3726    0.0928 N.ar    1  LIG1       -0.2331
     11 N           5.3759    0.8721   -0.6723 N.ar    1  LIG1       -0.2331
     12 C           1.1297   -0.5818    0.8111 C.ar    1  LIG1        0.1883
     13 C           0.4542    0.4789    0.2451 C.ar    1  LIG1        0.2307
     14 C           1.2831    1.3966   -0.3716 C.ar    1  LIG1        0.2639
     15 C          -1.6810    1.0507   -0.6016 C.ar    1  LIG1        0.1702
     16 C          -2.0267   -2.5472    0.9544 C.2     1  LIG1        0.0729
     17 C           3.1570    0.1142    0.0284 C.ar    1  LIG1        0.2027
     18 C          -2.7307    1.9445   -0.3407 C.ar    1  LIG1        0.1621
     19 C          -2.5026   -1.7322    1.9039 C.2     1  LIG1       -0.0353
     20 C          -3.9411   -1.5450    2.1362 C.ar    1  LIG1       -0.0237
     21 C          -1.5055    0.5481   -1.9030 C.ar    1  LIG1       -0.0157
     22 C           4.6124   -0.1368   -0.1854 C.ar    1  LIG1        0.1978
     23 C          -3.5613    2.3452   -1.3967 C.ar    1  LIG1       -0.0163
     24 C          -2.3265    0.9769   -2.9472 C.ar    1  LIG1       -0.0581
     25 C          -3.3527    1.8798   -2.6952 C.ar    1  LIG1       -0.0581
     26 C          -4.4063   -1.3924    3.4469 C.ar    1  LIG1       -0.0546
     27 C          -4.8595   -1.4712    1.0796 C.ar    1  LIG1       -0.0546
     28 C          -5.7682   -1.2075    3.7006 C.ar    1  LIG1       -0.0612
     29 C          -6.2216   -1.2898    1.3339 C.ar    1  LIG1       -0.0612
     30 C          -6.6763   -1.1624    2.6443 C.ar    1  LIG1       -0.0617
     31 C           1.6456    3.4173   -1.5203 C.3     1  LIG1        0.0805
     32 C          -2.1271    2.5604    1.8891 C.3     1  LIG1        0.0790
     33 C           6.3979   -1.5886   -0.1520 C.ar    1  LIG1        0.0315
     34 C           6.6763    0.5988   -0.8868 C.ar    1  LIG1        0.0315
     35 C           7.2455   -0.6280   -0.6466 C.ar    1  LIG1       -0.0254
     36 H           1.2484   -2.1064    2.0797 H       1  LIG1        0.1753
     37 H          -2.6702   -3.1374    0.3124 H       1  LIG1        0.0838
     38 H          -1.8409   -1.1716    2.5611 H       1  LIG1        0.0637
     39 H          -0.7314   -0.1845   -2.1191 H       1  LIG1        0.0655
     40 H          -4.3772    3.0381   -1.2017 H       1  LIG1        0.0655
     41 H          -2.1670    0.5985   -3.9542 H       1  LIG1        0.0619
     42 H          -3.9981    2.2157   -3.5025 H       1  LIG1        0.0619
     43 H          -3.7165   -1.4277    4.2868 H       1  LIG1        0.0623
     44 H          -4.5294   -1.5412    0.0465 H       1  LIG1        0.0623
     45 H          -6.1211   -1.0987    4.7233 H       1  LIG1        0.0618
     46 H          -6.9251   -1.2413    0.5059 H       1  LIG1        0.0618
     47 H          -7.7354   -1.0200    2.8410 H       1  LIG1        0.0618
     48 H           1.0911    4.2894   -1.8794 H       1  LIG1        0.0660
     49 H           2.0678    2.9086   -2.3941 H       1  LIG1        0.0660
     50 H           2.4360    3.7766   -0.8525 H       1  LIG1        0.0660
     51 H          -2.5006    3.2531    2.6495 H       1  LIG1        0.0660
     52 H          -1.1757    2.9601    1.5237 H       1  LIG1        0.0660
     53 H          -2.0006    1.5883    2.3738 H       1  LIG1        0.0660
     54 H           6.7506   -2.5932    0.0665 H       1  LIG1        0.0831
     55 H           7.2642    1.4252   -1.2753 H       1  LIG1        0.0831
     56 H           8.2911   -0.8247   -0.8352 H       1  LIG1        0.0648
@<TRIPOS>BOND
     1     1     4    2
     2     1     5    2
     3     1     7    1
     4     1    16    1
     5     2    13    1
     6     2    15    1
     7     3    14    1
     8     3    31    1
     9     6    18    1
    10     6    32    1
    11     7    12    1
    12     8    12   ar
    13     8    17   ar
    14     9    14   ar
    15     9    17   ar
    16    10    22   ar
    17    10    33   ar
    18    11    22   ar
    19    11    34   ar
    20    12    13   ar
    21    13    14   ar
    22    15    18   ar
    23    15    21   ar
    24    16    19    2
    25    17    22    1
    26    18    23   ar
    27    19    20    1
    28    20    26   ar
    29    20    27   ar
    30    21    24   ar
    31    23    25   ar
    32    24    25   ar
    33    26    28   ar
    34    27    29   ar
    35    28    30   ar
    36    29    30   ar
    37    33    35   ar
    38    34    35   ar
    39     7    36    1
    40    16    37    1
    41    19    38    1
    42    21    39    1
    43    23    40    1
    44    24    41    1
    45    25    42    1
    46    26    43    1
    47    27    44    1
    48    28    45    1
    49    29    46    1
    50    30    47    1
    51    31    48    1
    52    31    49    1
    53    31    50    1
    54    32    51    1
    55    32    52    1
    56    32    53    1
    57    33    54    1
    58    34    55    1
    59    35    56    1
@<TRIPOS>MOLECULE
9957262
 56 59 0 0 0
SMALL
GASTEIGER

@<TRIPOS>ATOM
      1 S          -0.1719   -3.1024    0.8963 S.O2    1  LIG1        0.0668
      2 O          -0.9474    0.3997    0.5289 O.3     1  LIG1       -0.4435
      3 O           0.3716    2.0580   -1.1144 O.3     1  LIG1       -0.4771
      4 O           0.7140   -4.2473    0.9309 O.2     1  LIG1       -0.1505
      5 O          -0.6879   -2.6143   -0.3642 O.2     1  LIG1       -0.1505
      6 O          -3.3820   -0.5907    0.7354 O.3     1  LIG1       -0.4914
      7 N           0.6837   -1.8693    1.6876 N.pl3   1  LIG1       -0.1968
      8 N           2.4714   -0.9888    0.6313 N.ar    1  LIG1       -0.2044
      9 N           2.3974    0.9187   -0.7856 N.ar    1  LIG1       -0.1867
     10 N           5.1144   -1.4111   -0.1061 N.ar    1  LIG1       -0.2331
     11 N           5.1966    0.8169   -0.9614 N.ar    1  LIG1       -0.2331
     12 C           1.1570   -0.8351    0.8411 C.ar    1  LIG1        0.1883
     13 C           0.3863    0.1893    0.3295 C.ar    1  LIG1        0.2307
     14 C           1.0774    1.0220   -0.5275 C.ar    1  LIG1        0.2639
     15 C          -1.4754    0.3007    1.8001 C.ar    1  LIG1        0.1702
     16 C          -1.5121   -3.4258    1.9532 C.2     1  LIG1        0.0729
     17 C           3.0602   -0.0950   -0.1902 C.ar    1  LIG1        0.2027
     18 C          -2.7811   -0.2110    1.9077 C.ar    1  LIG1        0.1621
     19 C          -1.2710   -3.8065    3.2192 C.2     1  LIG1       -0.0353
     20 C          -2.2873   -4.0603    4.2522 C.ar    1  LIG1       -0.0237
     21 C          -0.7996    0.7459    2.9424 C.ar    1  LIG1       -0.0157
     22 C           4.5245   -0.2365   -0.4378 C.ar    1  LIG1        0.1978
     23 C          -3.3595   -0.3532    3.1719 C.ar    1  LIG1       -0.0163
     24 C          -1.3882    0.6023    4.1989 C.ar    1  LIG1       -0.0581
     25 C          -2.6592    0.0428    4.3139 C.ar    1  LIG1       -0.0581
     26 C          -1.8678   -4.1475    5.5889 C.ar    1  LIG1       -0.0546
     27 C          -3.6462   -4.2499    3.9688 C.ar    1  LIG1       -0.0546
     28 C          -2.7812   -4.4050    6.6147 C.ar    1  LIG1       -0.0612
     29 C          -4.5614   -4.5050    4.9956 C.ar    1  LIG1       -0.0612
     30 C          -4.1291   -4.5822    6.3174 C.ar    1  LIG1       -0.0617
     31 C           1.0571    2.6511   -2.2135 C.3     1  LIG1        0.0805
     32 C          -4.7930   -0.7584    0.7590 C.3     1  LIG1        0.0790
     33 C           6.4357   -1.5159   -0.3330 C.ar    1  LIG1        0.0315
     34 C           6.5185    0.6569   -1.1542 C.ar    1  LIG1        0.0315
     35 C           7.1966   -0.5009   -0.8579 C.ar    1  LIG1       -0.0254
     36 H           1.5092   -2.3161    2.0906 H       1  LIG1        0.1753
     37 H          -2.4927   -3.2656    1.5358 H       1  LIG1        0.0838
     38 H          -0.2393   -3.9280    3.5473 H       1  LIG1        0.0637
     39 H           0.1836    1.2005    2.8704 H       1  LIG1        0.0655
     40 H          -4.3447   -0.7880    3.3032 H       1  LIG1        0.0655
     41 H          -0.8549    0.9250    5.0891 H       1  LIG1        0.0619
     42 H          -3.1102   -0.0854    5.2948 H       1  LIG1        0.0619
     43 H          -0.8197   -4.0152    5.8497 H       1  LIG1        0.0623
     44 H          -4.0175   -4.2145    2.9488 H       1  LIG1        0.0623
     45 H          -2.4370   -4.4718    7.6437 H       1  LIG1        0.0618
     46 H          -5.6121   -4.6532    4.7601 H       1  LIG1        0.0618
     47 H          -4.8400   -4.7878    7.1132 H       1  LIG1        0.0618
     48 H           0.3819    3.3784   -2.6738 H       1  LIG1        0.0660
     49 H           1.3098    1.9044   -2.9748 H       1  LIG1        0.0660
     50 H           1.9500    3.1896   -1.8792 H       1  LIG1        0.0660
     51 H          -5.1351   -0.8539   -0.2761 H       1  LIG1        0.0660
     52 H          -5.2962    0.1102    1.1968 H       1  LIG1        0.0660
     53 H          -5.0636   -1.6789    1.2857 H       1  LIG1        0.0660
     54 H           6.8758   -2.4734   -0.0702 H       1  LIG1        0.0831
     55 H           7.0338    1.5187   -1.5689 H       1  LIG1        0.0831
     56 H           8.2590   -0.6063   -1.0264 H       1  LIG1        0.0648
@<TRIPOS>BOND
     1     1     4    2
     2     1     5    2
     3     1     7    1
     4     1    16    1
     5     2    13    1
     6     2    15    1
     7     3    14    1
     8     3    31    1
     9     6    18    1
    10     6    32    1
    11     7    12    1
    12     8    12   ar
    13     8    17   ar
    14     9    14   ar
    15     9    17   ar
    16    10    22   ar
    17    10    33   ar
    18    11    22   ar
    19    11    34   ar
    20    12    13   ar
    21    13    14   ar
    22    15    18   ar
    23    15    21   ar
    24    16    19    2
    25    17    22    1
    26    18    23   ar
    27    19    20    1
    28    20    26   ar
    29    20    27   ar
    30    21    24   ar
    31    23    25   ar
    32    24    25   ar
    33    26    28   ar
    34    27    29   ar
    35    28    30   ar
    36    29    30   ar
    37    33    35   ar
    38    34    35   ar
    39     7    36    1
    40    16    37    1
    41    19    38    1
    42    21    39    1
    43    23    40    1
    44    24    41    1
    45    25    42    1
    46    26    43    1
    47    27    44    1
    48    28    45    1
    49    29    46    1
    50    30    47    1
    51    31    48    1
    52    31    49    1
    53    31    50    1
    54    32    51    1
    55    32    52    1
    56    32    53    1
    57    33    54    1
    58    34    55    1
    59    35    56    1
@<TRIPOS>MOLECULE
9957262
 56 59 0 0 0
SMALL
GASTEIGER

@<TRIPOS>ATOM
      1 S          -0.2055   -2.8666    1.0037 S.O2    1  LIG1        0.0668
      2 O          -0.8905    0.6809    0.3448 O.3     1  LIG1       -0.4435
      3 O           0.7988    2.5984   -0.8965 O.3     1  LIG1       -0.4771
      4 O          -0.6054   -3.6678    2.1459 O.2     1  LIG1       -0.1505
      5 O           0.7798   -3.3887    0.0739 O.2     1  LIG1       -0.1505
      6 O          -3.1974    2.3855    0.8921 O.3     1  LIG1       -0.4914
      7 N           0.4277   -1.4474    1.6814 N.pl3   1  LIG1       -0.1968
      8 N           2.4146   -0.7845    0.7393 N.ar    1  LIG1       -0.2044
      9 N           2.6321    1.1917   -0.5722 N.ar    1  LIG1       -0.1867
     10 N           5.0987    0.1806   -1.4452 N.ar    1  LIG1       -0.2331
     11 N           5.2993   -0.8039    0.7254 N.ar    1  LIG1       -0.2331
     12 C           1.0970   -0.5443    0.8024 C.ar    1  LIG1        0.1883
     13 C           0.4576    0.5158    0.1858 C.ar    1  LIG1        0.2307
     14 C           1.3154    1.4054   -0.4337 C.ar    1  LIG1        0.2639
     15 C          -1.6386    1.2351   -0.6735 C.ar    1  LIG1        0.1702
     16 C          -1.6369   -2.4488    0.1278 C.2     1  LIG1        0.0729
     17 C           3.1399    0.0741   -0.0105 C.ar    1  LIG1        0.2027
     18 C          -2.7393    2.0430   -0.3519 C.ar    1  LIG1        0.1621
     19 C          -2.1685   -3.3368   -0.7292 C.2     1  LIG1       -0.0353
     20 C          -3.3168   -3.0729   -1.6169 C.ar    1  LIG1       -0.0237
     21 C          -1.3858    0.9157   -2.0218 C.ar    1  LIG1       -0.0157
     22 C           4.5802   -0.2067   -0.2522 C.ar    1  LIG1        0.1978
     23 C          -3.5368    2.5501   -1.3874 C.ar    1  LIG1       -0.0163
     24 C          -2.1733    1.4512   -3.0415 C.ar    1  LIG1       -0.0581
     25 C          -3.2474    2.2738   -2.7240 C.ar    1  LIG1       -0.0581
     26 C          -3.7877   -1.7801   -1.8801 C.ar    1  LIG1       -0.0546
     27 C          -3.9128   -4.1391   -2.3037 C.ar    1  LIG1       -0.0546
     28 C          -4.7944   -1.5482   -2.8201 C.ar    1  LIG1       -0.0612
     29 C          -4.9337   -3.9125   -3.2349 C.ar    1  LIG1       -0.0612
     30 C          -5.3658   -2.6156   -3.5013 C.ar    1  LIG1       -0.0617
     31 C           1.7475    3.4607   -1.5125 C.3     1  LIG1        0.0805
     32 C          -2.2695    2.3836    1.9677 C.3     1  LIG1        0.0790
     33 C           6.4044   -0.0633   -1.6488 C.ar    1  LIG1        0.0315
     34 C           6.6050   -1.0088    0.4669 C.ar    1  LIG1        0.0315
     35 C           7.2158   -0.6568   -0.7142 C.ar    1  LIG1       -0.0254
     36 H           1.1066   -1.7601    2.3788 H       1  LIG1        0.1753
     37 H          -2.0558   -1.4772    0.3122 H       1  LIG1        0.0838
     38 H          -1.7161   -4.3239   -0.8263 H       1  LIG1        0.0637
     39 H          -0.5785    0.2423   -2.2991 H       1  LIG1        0.0655
     40 H          -4.3935    3.1753   -1.1447 H       1  LIG1        0.0655
     41 H          -1.9552    1.2124   -4.0796 H       1  LIG1        0.0619
     42 H          -3.8697    2.6896   -3.5122 H       1  LIG1        0.0619
     43 H          -3.3735   -0.9184   -1.3726 H       1  LIG1        0.0623
     44 H          -3.5853   -5.1619   -2.1300 H       1  LIG1        0.0623
     45 H          -5.1194   -0.5302   -3.0195 H       1  LIG1        0.0618
     46 H          -5.3837   -4.7503   -3.7610 H       1  LIG1        0.0618
     47 H          -6.1450   -2.4361   -4.2369 H       1  LIG1        0.0618
     48 H           1.1932    4.2850   -1.9721 H       1  LIG1        0.0660
     49 H           2.3067    2.9577   -2.3087 H       1  LIG1        0.0660
     50 H           2.4220    3.8850   -0.7619 H       1  LIG1        0.0660
     51 H          -2.7230    2.9382    2.7952 H       1  LIG1        0.0660
     52 H          -1.3373    2.8926    1.7018 H       1  LIG1        0.0660
     53 H          -2.0891    1.3657    2.3257 H       1  LIG1        0.0660
     54 H           6.7892    0.2461   -2.6163 H       1  LIG1        0.0831
     55 H           7.1668   -1.4808    1.2681 H       1  LIG1        0.0831
     56 H           8.2662   -0.8354   -0.8961 H       1  LIG1        0.0648
@<TRIPOS>BOND
     1     1     4    2
     2     1     5    2
     3     1     7    1
     4     1    16    1
     5     2    13    1
     6     2    15    1
     7     3    14    1
     8     3    31    1
     9     6    18    1
    10     6    32    1
    11     7    12    1
    12     8    12   ar
    13     8    17   ar
    14     9    14   ar
    15     9    17   ar
    16    10    22   ar
    17    10    33   ar
    18    11    22   ar
    19    11    34   ar
    20    12    13   ar
    21    13    14   ar
    22    15    18   ar
    23    15    21   ar
    24    16    19    2
    25    17    22    1
    26    18    23   ar
    27    19    20    1
    28    20    26   ar
    29    20    27   ar
    30    21    24   ar
    31    23    25   ar
    32    24    25   ar
    33    26    28   ar
    34    27    29   ar
    35    28    30   ar
    36    29    30   ar
    37    33    35   ar
    38    34    35   ar
    39     7    36    1
    40    16    37    1
    41    19    38    1
    42    21    39    1
    43    23    40    1
    44    24    41    1
    45    25    42    1
    46    26    43    1
    47    27    44    1
    48    28    45    1
    49    29    46    1
    50    30    47    1
    51    31    48    1
    52    31    49    1
    53    31    50    1
    54    32    51    1
    55    32    52    1
    56    32    53    1
    57    33    54    1
    58    34    55    1
    59    35    56    1
@<TRIPOS>MOLECULE
9957262
 56 59 0 0 0
SMALL
GASTEIGER

@<TRIPOS>ATOM
      1 S          -0.2107   -2.8098    0.9282 S.O2    1  LIG1        0.0668
      2 O          -0.9060    0.6073    0.4278 O.3     1  LIG1       -0.4435
      3 O           0.6949    2.3481   -1.2176 O.3     1  LIG1       -0.4771
      4 O           0.4578   -2.9975   -0.3396 O.2     1  LIG1       -0.1505
      5 O          -1.6460   -2.6013    0.9700 O.2     1  LIG1       -0.1505
      6 O          -2.9420    2.7191    0.8107 O.3     1  LIG1       -0.4914
      7 N           0.4184   -1.4483    1.7239 N.pl3   1  LIG1       -0.1968
      8 N           2.4129   -0.8172    0.7375 N.ar    1  LIG1       -0.2044
      9 N           2.5553    1.0078   -0.7860 N.ar    1  LIG1       -0.1867
     10 N           5.1616    0.2301   -1.3985 N.ar    1  LIG1       -0.2331
     11 N           5.2194   -0.9906    0.6548 N.ar    1  LIG1       -0.2331
     12 C           1.1047   -0.5526    0.8499 C.ar    1  LIG1        0.1883
     13 C           0.4296    0.4450    0.1728 C.ar    1  LIG1        0.2307
     14 C           1.2372    1.2275   -0.6242 C.ar    1  LIG1        0.2639
     15 C          -1.7395    1.0250   -0.5837 C.ar    1  LIG1        0.1702
     16 C           0.1857   -4.1306    1.9833 C.2     1  LIG1        0.0729
     17 C           3.1054   -0.0257   -0.1074 C.ar    1  LIG1        0.2027
     18 C          -2.6913    2.0276   -0.3440 C.ar    1  LIG1        0.1621
     19 C          -0.5497   -5.2505    1.9198 C.2     1  LIG1       -0.0353
     20 C          -0.3654   -6.4340    2.7731 C.ar    1  LIG1       -0.0237
     21 C          -1.6903    0.3947   -1.8400 C.ar    1  LIG1       -0.0157
     22 C           4.5635   -0.2793   -0.2935 C.ar    1  LIG1        0.1978
     23 C          -3.5339    2.4214   -1.3939 C.ar    1  LIG1       -0.0163
     24 C          -2.5282    0.8095   -2.8759 C.ar    1  LIG1       -0.0581
     25 C          -3.4469    1.8287   -2.6544 C.ar    1  LIG1       -0.0581
     26 C           0.1456   -6.3605    4.0761 C.ar    1  LIG1       -0.0546
     27 C          -0.7937   -7.6806    2.2932 C.ar    1  LIG1       -0.0546
     28 C           0.2425   -7.5071    4.8710 C.ar    1  LIG1       -0.0612
     29 C          -0.6974   -8.8268    3.0873 C.ar    1  LIG1       -0.0612
     30 C          -0.1787   -8.7394    4.3765 C.ar    1  LIG1       -0.0617
     31 C           1.4630    2.8329   -2.3143 C.3     1  LIG1        0.0805
     32 C          -2.1308    2.4812    1.9487 C.3     1  LIG1        0.0790
     33 C           6.4784   -0.0082   -1.5420 C.ar    1  LIG1        0.0315
     34 C           6.5373   -1.1880    0.4595 C.ar    1  LIG1        0.0315
     35 C           7.2239   -0.7169   -0.6329 C.ar    1  LIG1       -0.0254
     36 H          -0.3923   -0.9858    2.1409 H       1  LIG1        0.1753
     37 H           1.0189   -3.9875    2.6542 H       1  LIG1        0.0838
     38 H          -1.3593   -5.3233    1.1933 H       1  LIG1        0.0637
     39 H          -0.9966   -0.4223   -2.0257 H       1  LIG1        0.0655
     40 H          -4.2697    3.2043   -1.2232 H       1  LIG1        0.0655
     41 H          -2.4662    0.3325   -3.8500 H       1  LIG1        0.0619
     42 H          -4.1052    2.1566   -3.4543 H       1  LIG1        0.0619
     43 H           0.4592   -5.4109    4.5019 H       1  LIG1        0.0623
     44 H          -1.2090   -7.7736    1.2915 H       1  LIG1        0.0623
     45 H           0.6376   -7.4352    5.8812 H       1  LIG1        0.0618
     46 H          -1.0335   -9.7852    2.6996 H       1  LIG1        0.0618
     47 H          -0.1091   -9.6289    4.9969 H       1  LIG1        0.0618
     48 H           0.8853    3.6251   -2.7999 H       1  LIG1        0.0660
     49 H           1.6380    2.0461   -3.0569 H       1  LIG1        0.0660
     50 H           2.4078    3.2689   -1.9732 H       1  LIG1        0.0660
     51 H          -2.4815    3.1398    2.7494 H       1  LIG1        0.0660
     52 H          -1.0857    2.7387    1.7514 H       1  LIG1        0.0660
     53 H          -2.2391    1.4528    2.3077 H       1  LIG1        0.0660
     54 H           6.9281    0.4034   -2.4408 H       1  LIG1        0.0831
     55 H           7.0397   -1.7575    1.2369 H       1  LIG1        0.0831
     56 H           8.2819   -0.8925   -0.7684 H       1  LIG1        0.0648
@<TRIPOS>BOND
     1     1     4    2
     2     1     5    2
     3     1     7    1
     4     1    16    1
     5     2    13    1
     6     2    15    1
     7     3    14    1
     8     3    31    1
     9     6    18    1
    10     6    32    1
    11     7    12    1
    12     8    12   ar
    13     8    17   ar
    14     9    14   ar
    15     9    17   ar
    16    10    22   ar
    17    10    33   ar
    18    11    22   ar
    19    11    34   ar
    20    12    13   ar
    21    13    14   ar
    22    15    18   ar
    23    15    21   ar
    24    16    19    2
    25    17    22    1
    26    18    23   ar
    27    19    20    1
    28    20    26   ar
    29    20    27   ar
    30    21    24   ar
    31    23    25   ar
    32    24    25   ar
    33    26    28   ar
    34    27    29   ar
    35    28    30   ar
    36    29    30   ar
    37    33    35   ar
    38    34    35   ar
    39     7    36    1
    40    16    37    1
    41    19    38    1
    42    21    39    1
    43    23    40    1
    44    24    41    1
    45    25    42    1
    46    26    43    1
    47    27    44    1
    48    28    45    1
    49    29    46    1
    50    30    47    1
    51    31    48    1
    52    31    49    1
    53    31    50    1
    54    32    51    1
    55    32    52    1
    56    32    53    1
    57    33    54    1
    58    34    55    1
    59    35    56    1
@<TRIPOS>MOLECULE
9957262
 56 59 0 0 0
SMALL
GASTEIGER

@<TRIPOS>ATOM
      1 S          -0.1604   -2.7486    1.0773 S.O2    1  LIG1        0.0668
      2 O          -0.8762    0.6864    0.4483 O.3     1  LIG1       -0.4435
      3 O           0.7418    2.5441   -1.0149 O.3     1  LIG1       -0.4771
      4 O           0.5646   -3.0583   -0.1338 O.2     1  LIG1       -0.1505
      5 O          -1.5942   -2.5285    1.0332 O.2     1  LIG1       -0.1505
      6 O          -3.0623    2.6141    0.8770 O.3     1  LIG1       -0.4914
      7 N           0.4557   -1.3327    1.7789 N.pl3   1  LIG1       -0.1968
      8 N           2.4453   -0.7335    0.7566 N.ar    1  LIG1       -0.2044
      9 N           2.6031    1.1695   -0.6674 N.ar    1  LIG1       -0.1867
     10 N           5.1635    0.3198   -1.4009 N.ar    1  LIG1       -0.2331
     11 N           5.2701   -0.8845    0.6602 N.ar    1  LIG1       -0.2331
     12 C           1.1367   -0.4730    0.8701 C.ar    1  LIG1        0.1883
     13 C           0.4656    0.5425    0.2199 C.ar    1  LIG1        0.2307
     14 C           1.2862    1.3856   -0.4985 C.ar    1  LIG1        0.2639
     15 C          -1.6940    1.1078   -0.5758 C.ar    1  LIG1        0.1702
     16 C           0.1697   -3.9790    2.2583 C.2     1  LIG1        0.0729
     17 C           3.1420    0.0900   -0.0533 C.ar    1  LIG1        0.2027
     18 C          -2.7233    2.0245   -0.3122 C.ar    1  LIG1        0.1621
     19 C          -0.3262   -3.8403    3.4988 C.2     1  LIG1       -0.0353
     20 C          -0.1039   -4.7708    4.6147 C.ar    1  LIG1       -0.0237
     21 C          -1.5578    0.5682   -1.8677 C.ar    1  LIG1       -0.0157
     22 C           4.5923   -0.1766   -0.2737 C.ar    1  LIG1        0.1978
     23 C          -3.5603    2.4227   -1.3647 C.ar    1  LIG1       -0.0163
     24 C          -2.3871    0.9914   -2.9069 C.ar    1  LIG1       -0.0581
     25 C          -3.3863    1.9247   -2.6559 C.ar    1  LIG1       -0.0581
     26 C          -0.1841   -4.2725    5.9243 C.ar    1  LIG1       -0.0546
     27 C           0.1264   -6.1402    4.4335 C.ar    1  LIG1       -0.0546
     28 C          -0.0191   -5.1175    7.0246 C.ar    1  LIG1       -0.0612
     29 C           0.2920   -6.9856    5.5351 C.ar    1  LIG1       -0.0612
     30 C           0.2206   -6.4747    6.8296 C.ar    1  LIG1       -0.0617
     31 C           1.6850    3.3905   -1.6634 C.3     1  LIG1        0.0805
     32 C          -2.1868    2.4812    1.9832 C.3     1  LIG1        0.0790
     33 C           6.4715    0.0664   -1.5818 C.ar    1  LIG1        0.0315
     34 C           6.5788   -1.0955    0.4283 C.ar    1  LIG1        0.0315
     35 C           7.2376   -0.6413   -0.6885 C.ar    1  LIG1       -0.0254
     36 H          -0.3556   -0.8564    2.1745 H       1  LIG1        0.1753
     37 H           0.7927   -4.8005    1.9384 H       1  LIG1        0.0838
     38 H          -0.9330   -2.9695    3.7430 H       1  LIG1        0.0637
     39 H          -0.8028   -0.1851   -2.0820 H       1  LIG1        0.0655
     40 H          -4.3581    3.1364   -1.1716 H       1  LIG1        0.0655
     41 H          -2.2562    0.5880   -3.9069 H       1  LIG1        0.0619
     42 H          -4.0394    2.2577   -3.4589 H       1  LIG1        0.0619
     43 H          -0.3720   -3.2155    6.1037 H       1  LIG1        0.0623
     44 H           0.1667   -6.5739    3.4381 H       1  LIG1        0.0623
     45 H          -0.0807   -4.7150    8.0325 H       1  LIG1        0.0618
     46 H           0.4698   -8.0471    5.3811 H       1  LIG1        0.0618
     47 H           0.3454   -7.1340    7.6840 H       1  LIG1        0.0618
     48 H           1.1462    4.2702   -2.0271 H       1  LIG1        0.0660
     49 H           2.1373    2.8938   -2.5283 H       1  LIG1        0.0660
     50 H           2.4515    3.7374   -0.9613 H       1  LIG1        0.0660
     51 H          -2.5717    3.1143    2.7888 H       1  LIG1        0.0660
     52 H          -1.1800    2.8383    1.7426 H       1  LIG1        0.0660
     53 H          -2.1775    1.4534    2.3592 H       1  LIG1        0.0660
     54 H           6.8977    0.4642   -2.4981 H       1  LIG1        0.0831
     55 H           7.0989   -1.6619    1.1960 H       1  LIG1        0.0831
     56 H           8.2893   -0.8284   -0.8538 H       1  LIG1        0.0648
@<TRIPOS>BOND
     1     1     4    2
     2     1     5    2
     3     1     7    1
     4     1    16    1
     5     2    13    1
     6     2    15    1
     7     3    14    1
     8     3    31    1
     9     6    18    1
    10     6    32    1
    11     7    12    1
    12     8    12   ar
    13     8    17   ar
    14     9    14   ar
    15     9    17   ar
    16    10    22   ar
    17    10    33   ar
    18    11    22   ar
    19    11    34   ar
    20    12    13   ar
    21    13    14   ar
    22    15    18   ar
    23    15    21   ar
    24    16    19    2
    25    17    22    1
    26    18    23   ar
    27    19    20    1
    28    20    26   ar
    29    20    27   ar
    30    21    24   ar
    31    23    25   ar
    32    24    25   ar
    33    26    28   ar
    34    27    29   ar
    35    28    30   ar
    36    29    30   ar
    37    33    35   ar
    38    34    35   ar
    39     7    36    1
    40    16    37    1
    41    19    38    1
    42    21    39    1
    43    23    40    1
    44    24    41    1
    45    25    42    1
    46    26    43    1
    47    27    44    1
    48    28    45    1
    49    29    46    1
    50    30    47    1
    51    31    48    1
    52    31    49    1
    53    31    50    1
    54    32    51    1
    55    32    52    1
    56    32    53    1
    57    33    54    1
    58    34    55    1
    59    35    56    1
@<TRIPOS>MOLECULE
9957262
 56 59 0 0 0
SMALL
GASTEIGER

@<TRIPOS>ATOM
      1 S          -0.1458   -2.7335    1.0753 S.O2    1  LIG1        0.0668
      2 O          -0.8689    0.7245    0.4667 O.3     1  LIG1       -0.4435
      3 O           0.7491    2.5568   -1.0253 O.3     1  LIG1       -0.4771
      4 O           0.5905   -3.0366   -0.1330 O.2     1  LIG1       -0.1505
      5 O          -1.5796   -2.5290    1.0215 O.2     1  LIG1       -0.1505
      6 O          -3.0414    2.6799    0.8596 O.3     1  LIG1       -0.4914
      7 N           0.4506   -1.3128    1.7812 N.pl3   1  LIG1       -0.1968
      8 N           2.4432   -0.7184    0.7609 N.ar    1  LIG1       -0.2044
      9 N           2.6061    1.1757   -0.6728 N.ar    1  LIG1       -0.1867
     10 N           5.1748    0.3398   -1.3829 N.ar    1  LIG1       -0.2331
     11 N           5.2575   -0.9087    0.6522 N.ar    1  LIG1       -0.2331
     12 C           1.1364   -0.4509    0.8781 C.ar    1  LIG1        0.1883
     13 C           0.4695    0.5681    0.2278 C.ar    1  LIG1        0.2307
     14 C           1.2905    1.4005   -0.5008 C.ar    1  LIG1        0.2639
     15 C          -1.6943    1.1231   -0.5610 C.ar    1  LIG1        0.1702
     16 C           0.1915   -3.9598    2.2585 C.2     1  LIG1        0.0729
     17 C           3.1423    0.0983   -0.0538 C.ar    1  LIG1        0.2027
     18 C          -2.7163    2.0524   -0.3133 C.ar    1  LIG1        0.1621
     19 C          -0.3429   -3.8429    3.4868 C.2     1  LIG1       -0.0353
     20 C          -0.1118   -4.7731    4.5993 C.ar    1  LIG1       -0.0237
     21 C          -1.5719    0.5468   -1.8385 C.ar    1  LIG1       -0.0157
     22 C           4.5919   -0.1748   -0.2714 C.ar    1  LIG1        0.1978
     23 C          -3.5596    2.4265   -1.3699 C.ar    1  LIG1       -0.0163
     24 C          -2.4102    0.9442   -2.8809 C.ar    1  LIG1       -0.0581
     25 C          -3.4020    1.8898   -2.6479 C.ar    1  LIG1       -0.0581
     26 C           0.1042   -6.1439    4.4127 C.ar    1  LIG1       -0.0546
     27 C          -0.1699   -4.2742    5.9095 C.ar    1  LIG1       -0.0546
     28 C           0.2795   -6.9916    5.5103 C.ar    1  LIG1       -0.0612
     29 C           0.0057   -5.1221    7.0069 C.ar    1  LIG1       -0.0612
     30 C           0.2318   -6.4806    6.8062 C.ar    1  LIG1       -0.0617
     31 C           1.6918    3.3875   -1.6937 C.3     1  LIG1        0.0805
     32 C          -2.1935    2.5200    1.9847 C.3     1  LIG1        0.0790
     33 C           6.4821    0.0803   -1.5602 C.ar    1  LIG1        0.0315
     34 C           6.5660   -1.1265    0.4247 C.ar    1  LIG1        0.0315
     35 C           7.2360   -0.6532   -0.6774 C.ar    1  LIG1       -0.0254
     36 H          -0.3677   -0.8405    2.1680 H       1  LIG1        0.1753
     37 H           0.8518   -4.7575    1.9553 H       1  LIG1        0.0838
     38 H          -0.9844   -2.9950    3.7209 H       1  LIG1        0.0637
     39 H          -0.8233   -0.2157   -2.0384 H       1  LIG1        0.0655
     40 H          -4.3514    3.1508   -1.1903 H       1  LIG1        0.0655
     41 H          -2.2917    0.5105   -3.8703 H       1  LIG1        0.0619
     42 H          -4.0611    2.2026   -3.4532 H       1  LIG1        0.0619
     43 H           0.1254   -6.5761    3.4157 H       1  LIG1        0.0623
     44 H          -0.3471   -3.2163    6.0901 H       1  LIG1        0.0623
     45 H           0.4463   -8.0547    5.3537 H       1  LIG1        0.0618
     46 H          -0.0376   -4.7199    8.0152 H       1  LIG1        0.0618
     47 H           0.3656   -7.1420    7.6584 H       1  LIG1        0.0618
     48 H           1.1560    4.2673   -2.0622 H       1  LIG1        0.0660
     49 H           2.1301    2.8765   -2.5576 H       1  LIG1        0.0660
     50 H           2.4688    3.7364   -1.0048 H       1  LIG1        0.0660
     51 H          -2.5823    3.1567    2.7857 H       1  LIG1        0.0660
     52 H          -1.1753    2.8566    1.7679 H       1  LIG1        0.0660
     53 H          -2.2153    1.4900    2.3542 H       1  LIG1        0.0660
     54 H           6.9182    0.4946   -2.4647 H       1  LIG1        0.0831
     55 H           7.0757   -1.7138    1.1828 H       1  LIG1        0.0831
     56 H           8.2872   -0.8456   -0.8397 H       1  LIG1        0.0648
@<TRIPOS>BOND
     1     1     4    2
     2     1     5    2
     3     1     7    1
     4     1    16    1
     5     2    13    1
     6     2    15    1
     7     3    14    1
     8     3    31    1
     9     6    18    1
    10     6    32    1
    11     7    12    1
    12     8    12   ar
    13     8    17   ar
    14     9    14   ar
    15     9    17   ar
    16    10    22   ar
    17    10    33   ar
    18    11    22   ar
    19    11    34   ar
    20    12    13   ar
    21    13    14   ar
    22    15    18   ar
    23    15    21   ar
    24    16    19    2
    25    17    22    1
    26    18    23   ar
    27    19    20    1
    28    20    26   ar
    29    20    27   ar
    30    21    24   ar
    31    23    25   ar
    32    24    25   ar
    33    26    28   ar
    34    27    29   ar
    35    28    30   ar
    36    29    30   ar
    37    33    35   ar
    38    34    35   ar
    39     7    36    1
    40    16    37    1
    41    19    38    1
    42    21    39    1
    43    23    40    1
    44    24    41    1
    45    25    42    1
    46    26    43    1
    47    27    44    1
    48    28    45    1
    49    29    46    1
    50    30    47    1
    51    31    48    1
    52    31    49    1
    53    31    50    1
    54    32    51    1
    55    32    52    1
    56    32    53    1
    57    33    54    1
    58    34    55    1
    59    35    56    1
@<TRIPOS>MOLECULE
9957262
 56 59 0 0 0
SMALL
GASTEIGER

@<TRIPOS>ATOM
      1 S          -0.1793   -2.8542    0.9479 S.O2    1  LIG1        0.0668
      2 O          -0.9622    0.4867    0.3603 O.3     1  LIG1       -0.4435
      3 O           0.6361    2.5453   -0.8499 O.3     1  LIG1       -0.4771
      4 O           0.3376   -4.0041    1.6640 O.2     1  LIG1       -0.1505
      5 O           0.0097   -2.7490   -0.4821 O.2     1  LIG1       -0.1505
      6 O          -0.5675   -0.3061   -2.3276 O.3     1  LIG1       -0.4914
      7 N           0.5380   -1.5354    1.7243 N.pl3   1  LIG1       -0.1968
      8 N           2.4373   -0.7261    0.8112 N.ar    1  LIG1       -0.2044
      9 N           2.5519    1.2587   -0.4844 N.ar    1  LIG1       -0.1867
     10 N           5.0315   -1.3429    0.0175 N.ar    1  LIG1       -0.2331
     11 N           5.3377    0.9415   -0.6103 N.ar    1  LIG1       -0.2331
     12 C           1.1101   -0.5573    0.8678 C.ar    1  LIG1        0.1883
     13 C           0.4000    0.4469    0.2427 C.ar    1  LIG1        0.2307
     14 C           1.2134    1.3845   -0.3715 C.ar    1  LIG1        0.2639
     15 C          -1.7096    0.9822   -0.6929 C.ar    1  LIG1        0.1702
     16 C          -1.8585   -2.7310    1.3649 C.2     1  LIG1        0.0729
     17 C           3.1187    0.1680    0.0698 C.ar    1  LIG1        0.2027
     18 C          -1.5223    0.6318   -2.0424 C.ar    1  LIG1        0.1621
     19 C          -2.7998   -2.7968    0.4123 C.2     1  LIG1       -0.0353
     20 C          -4.2557   -2.8044    0.6442 C.ar    1  LIG1       -0.0237
     21 C          -2.7286    1.8718   -0.3351 C.ar    1  LIG1       -0.0157
     22 C           4.5672   -0.0836   -0.1727 C.ar    1  LIG1        0.1978
     23 C          -2.3379    1.2163   -3.0184 C.ar    1  LIG1       -0.0163
     24 C          -3.5311    2.4527   -1.3165 C.ar    1  LIG1       -0.0581
     25 C          -3.3302    2.1311   -2.6568 C.ar    1  LIG1       -0.0581
     26 C          -4.8428   -2.7860    1.9177 C.ar    1  LIG1       -0.0546
     27 C          -5.1018   -2.8661   -0.4732 C.ar    1  LIG1       -0.0546
     28 C          -6.2332   -2.8275    2.0680 C.ar    1  LIG1       -0.0612
     29 C          -6.4911   -2.9095   -0.3238 C.ar    1  LIG1       -0.0612
     30 C          -7.0565   -2.8901    0.9476 C.ar    1  LIG1       -0.0617
     31 C           1.5524    3.4282   -1.4880 C.3     1  LIG1        0.0805
     32 C           0.0434   -0.2159   -3.6093 C.3     1  LIG1        0.0790
     33 C           6.3262   -1.5653   -0.2671 C.ar    1  LIG1        0.0315
     34 C           6.6290    0.6606   -0.8651 C.ar    1  LIG1        0.0315
     35 C           7.1808   -0.5889   -0.7157 C.ar    1  LIG1       -0.0254
     36 H           1.2986   -1.9259    2.2839 H       1  LIG1        0.1753
     37 H          -2.0682   -2.6680    2.4202 H       1  LIG1        0.0838
     38 H          -2.4943   -2.8746   -0.6314 H       1  LIG1        0.0637
     39 H          -2.8846    2.1253    0.7097 H       1  LIG1        0.0655
     40 H          -2.2323    0.9636   -4.0685 H       1  LIG1        0.0655
     41 H          -4.3119    3.1547   -1.0358 H       1  LIG1        0.0619
     42 H          -3.9556    2.5829   -3.4231 H       1  LIG1        0.0619
     43 H          -4.2394   -2.7474    2.8193 H       1  LIG1        0.0623
     44 H          -4.6870   -2.8875   -1.4791 H       1  LIG1        0.0623
     45 H          -6.6706   -2.8160    3.0630 H       1  LIG1        0.0618
     46 H          -7.1284   -2.9622   -1.2025 H       1  LIG1        0.0618
     47 H          -8.1362   -2.9271    1.0653 H       1  LIG1        0.0618
     48 H           0.9813    4.2780   -1.8743 H       1  LIG1        0.0660
     49 H           2.0466    2.9471   -2.3392 H       1  LIG1        0.0660
     50 H           2.2859    3.8173   -0.7735 H       1  LIG1        0.0660
     51 H           0.9522   -0.8251   -3.5897 H       1  LIG1        0.0660
     52 H           0.3382    0.8127   -3.8463 H       1  LIG1        0.0660
     53 H          -0.6152   -0.6230   -4.3825 H       1  LIG1        0.0660
     54 H           6.6626   -2.5881   -0.1226 H       1  LIG1        0.0831
     55 H           7.2255    1.5003   -1.2096 H       1  LIG1        0.0831
     56 H           8.2189   -0.7912   -0.9375 H       1  LIG1        0.0648
@<TRIPOS>BOND
     1     1     4    2
     2     1     5    2
     3     1     7    1
     4     1    16    1
     5     2    13    1
     6     2    15    1
     7     3    14    1
     8     3    31    1
     9     6    18    1
    10     6    32    1
    11     7    12    1
    12     8    12   ar
    13     8    17   ar
    14     9    14   ar
    15     9    17   ar
    16    10    22   ar
    17    10    33   ar
    18    11    22   ar
    19    11    34   ar
    20    12    13   ar
    21    13    14   ar
    22    15    18   ar
    23    15    21   ar
    24    16    19    2
    25    17    22    1
    26    18    23   ar
    27    19    20    1
    28    20    26   ar
    29    20    27   ar
    30    21    24   ar
    31    23    25   ar
    32    24    25   ar
    33    26    28   ar
    34    27    29   ar
    35    28    30   ar
    36    29    30   ar
    37    33    35   ar
    38    34    35   ar
    39     7    36    1
    40    16    37    1
    41    19    38    1
    42    21    39    1
    43    23    40    1
    44    24    41    1
    45    25    42    1
    46    26    43    1
    47    27    44    1
    48    28    45    1
    49    29    46    1
    50    30    47    1
    51    31    48    1
    52    31    49    1
    53    31    50    1
    54    32    51    1
    55    32    52    1
    56    32    53    1
    57    33    54    1
    58    34    55    1
    59    35    56    1
@<TRIPOS>MOLECULE
9957262
 56 59 0 0 0
SMALL
GASTEIGER

@<TRIPOS>ATOM
      1 S          -0.2241   -2.8691    0.7643 S.O2    1  LIG1        0.0668
      2 O          -0.9190    0.4516    0.4167 O.3     1  LIG1       -0.4435
      3 O           0.6418    2.3712   -1.0663 O.3     1  LIG1       -0.4771
      4 O           0.3154   -4.0926    1.3259 O.2     1  LIG1       -0.1505
      5 O          -0.1163   -2.6027   -0.6527 O.2     1  LIG1       -0.1505
      6 O          -3.0120    2.4791    0.8922 O.3     1  LIG1       -0.4914
      7 N           0.5510   -1.6351    1.6320 N.pl3   1  LIG1       -0.1968
      8 N           2.4682   -0.8190    0.7292 N.ar    1  LIG1       -0.2044
      9 N           2.5559    1.1061   -0.6614 N.ar    1  LIG1       -0.1867
     10 N           5.3419    0.8535   -0.7572 N.ar    1  LIG1       -0.2331
     11 N           5.1170   -1.3704    0.0834 N.ar    1  LIG1       -0.2331
     12 C           1.1456   -0.6336    0.8168 C.ar    1  LIG1        0.1883
     13 C           0.4298    0.3690    0.1948 C.ar    1  LIG1        0.2307
     14 C           1.2208    1.2425   -0.5247 C.ar    1  LIG1        0.2639
     15 C          -1.7359    0.9222   -0.5861 C.ar    1  LIG1        0.1702
     16 C          -1.8976   -2.7532    1.2165 C.2     1  LIG1        0.0729
     17 C           3.1408    0.0562   -0.0456 C.ar    1  LIG1        0.2027
     18 C          -2.7189    1.8826   -0.3045 C.ar    1  LIG1        0.1621
     19 C          -2.6712   -3.8373    1.0480 C.2     1  LIG1       -0.0353
     20 C          -4.1068   -3.9463    1.3552 C.ar    1  LIG1       -0.0237
     21 C          -1.6471    0.3731   -1.8772 C.ar    1  LIG1       -0.0157
     22 C           4.6035   -0.1597   -0.2434 C.ar    1  LIG1        0.1978
     23 C          -3.5600    2.3118   -1.3414 C.ar    1  LIG1       -0.0163
     24 C          -2.4805    0.8252   -2.9004 C.ar    1  LIG1       -0.0581
     25 C          -3.4343    1.8009   -2.6335 C.ar    1  LIG1       -0.0581
     26 C          -4.8227   -2.9802    2.0741 C.ar    1  LIG1       -0.0546
     27 C          -4.7866   -5.0980    0.9282 C.ar    1  LIG1       -0.0546
     28 C          -6.1830   -3.1583    2.3487 C.ar    1  LIG1       -0.0612
     29 C          -6.1450   -5.2759    1.2027 C.ar    1  LIG1       -0.0612
     30 C          -6.8434   -4.3047    1.9128 C.ar    1  LIG1       -0.0617
     31 C           1.3687    2.8898   -2.1766 C.3     1  LIG1        0.0805
     32 C          -2.0578    2.4062    1.9391 C.3     1  LIG1        0.0790
     33 C           6.6526    0.6133   -0.9453 C.ar    1  LIG1        0.0315
     34 C           6.4307   -1.5553   -0.1380 C.ar    1  LIG1        0.0315
     35 C           7.2556   -0.5866   -0.6549 C.ar    1  LIG1       -0.0254
     36 H           1.3002   -2.0892    2.1596 H       1  LIG1        0.1753
     37 H          -2.2441   -1.8049    1.5938 H       1  LIG1        0.0838
     38 H          -2.2198   -4.7437    0.6422 H       1  LIG1        0.0637
     39 H          -0.9265   -0.4111   -2.0995 H       1  LIG1        0.0655
     40 H          -4.3219    3.0608   -1.1361 H       1  LIG1        0.0655
     41 H          -2.3889    0.4095   -3.9003 H       1  LIG1        0.0619
     42 H          -4.0893    2.1570   -3.4243 H       1  LIG1        0.0619
     43 H          -4.3428   -2.0773    2.4391 H       1  LIG1        0.0623
     44 H          -4.2651   -5.8747    0.3725 H       1  LIG1        0.0623
     45 H          -6.7260   -2.3995    2.9066 H       1  LIG1        0.0618
     46 H          -6.6539   -6.1740    0.8619 H       1  LIG1        0.0618
     47 H          -7.8998   -4.4410    2.1280 H       1  LIG1        0.0618
     48 H           0.7529    3.6634   -2.6457 H       1  LIG1        0.0660
     49 H           1.5563    2.1144   -2.9286 H       1  LIG1        0.0660
     50 H           2.3047    3.3566   -1.8530 H       1  LIG1        0.0660
     51 H          -2.3830    3.0888    2.7308 H       1  LIG1        0.0660
     52 H          -1.0686    2.7395    1.6088 H       1  LIG1        0.0660
     53 H          -2.0279    1.4023    2.3728 H       1  LIG1        0.0660
     54 H           7.2216    1.4437   -1.3534 H       1  LIG1        0.0831
     55 H           6.8099   -2.5400    0.1194 H       1  LIG1        0.0831
     56 H           8.3094   -0.7578   -0.8229 H       1  LIG1        0.0648
@<TRIPOS>BOND
     1     1     4    2
     2     1     5    2
     3     1     7    1
     4     1    16    1
     5     2    13    1
     6     2    15    1
     7     3    14    1
     8     3    31    1
     9     6    18    1
    10     6    32    1
    11     7    12    1
    12     8    12   ar
    13     8    17   ar
    14     9    14   ar
    15     9    17   ar
    16    10    22   ar
    17    10    33   ar
    18    11    22   ar
    19    11    34   ar
    20    12    13   ar
    21    13    14   ar
    22    15    18   ar
    23    15    21   ar
    24    16    19    2
    25    17    22    1
    26    18    23   ar
    27    19    20    1
    28    20    26   ar
    29    20    27   ar
    30    21    24   ar
    31    23    25   ar
    32    24    25   ar
    33    26    28   ar
    34    27    29   ar
    35    28    30   ar
    36    29    30   ar
    37    33    35   ar
    38    34    35   ar
    39     7    36    1
    40    16    37    1
    41    19    38    1
    42    21    39    1
    43    23    40    1
    44    24    41    1
    45    25    42    1
    46    26    43    1
    47    27    44    1
    48    28    45    1
    49    29    46    1
    50    30    47    1
    51    31    48    1
    52    31    49    1
    53    31    50    1
    54    32    51    1
    55    32    52    1
    56    32    53    1
    57    33    54    1
    58    34    55    1
    59    35    56    1
@<TRIPOS>MOLECULE
9957262
 56 59 0 0 0
SMALL
GASTEIGER

@<TRIPOS>ATOM
      1 S          -0.1439   -2.8275    1.0773 S.O2    1  LIG1        0.0668
      2 O          -0.8986    0.5452    0.3759 O.3     1  LIG1       -0.4435
      3 O           0.7045    2.4987   -0.9891 O.3     1  LIG1       -0.4771
      4 O           0.6255   -3.1953   -0.0939 O.2     1  LIG1       -0.1505
      5 O          -1.5652   -2.5746    0.9675 O.2     1  LIG1       -0.1505
      6 O          -3.1296    2.3708    0.9136 O.3     1  LIG1       -0.4914
      7 N           0.4866   -1.4109    1.7587 N.pl3   1  LIG1       -0.1968
      8 N           2.4615   -0.7705    0.7379 N.ar    1  LIG1       -0.2044
      9 N           2.5913    1.1591   -0.6505 N.ar    1  LIG1       -0.1867
     10 N           5.1293    0.2611   -1.4597 N.ar    1  LIG1       -0.2331
     11 N           5.3092   -0.7963    0.6763 N.ar    1  LIG1       -0.2331
     12 C           1.1444   -0.5458    0.8373 C.ar    1  LIG1        0.1883
     13 C           0.4547    0.4568    0.1839 C.ar    1  LIG1        0.2307
     14 C           1.2673    1.3390   -0.4963 C.ar    1  LIG1        0.2639
     15 C          -1.6932    1.0436   -0.6329 C.ar    1  LIG1        0.1702
     16 C           0.0992   -4.0314    2.3038 C.2     1  LIG1        0.0729
     17 C           3.1458    0.0783   -0.0558 C.ar    1  LIG1        0.2027
     18 C          -2.7413    1.9219   -0.3204 C.ar    1  LIG1        0.1621
     19 C          -0.2891   -3.7700    3.5616 C.2     1  LIG1       -0.0353
     20 C          -0.1097   -4.7217    4.6561 C.ar    1  LIG1       -0.0237
     21 C          -1.5097    0.6270   -1.9642 C.ar    1  LIG1       -0.0157
     22 C           4.5963   -0.1673   -0.2880 C.ar    1  LIG1        0.1978
     23 C          -3.5464    2.4132   -1.3572 C.ar    1  LIG1       -0.0163
     24 C          -2.3007    1.1508   -2.9877 C.ar    1  LIG1       -0.0581
     25 C          -3.3151    2.0517   -2.6848 C.ar    1  LIG1       -0.0581
     26 C          -1.2295   -5.3437    5.2177 C.ar    1  LIG1       -0.0546
     27 C           1.1607   -4.9841    5.1804 C.ar    1  LIG1       -0.0546
     28 C          -1.0805   -6.2221    6.2925 C.ar    1  LIG1       -0.0612
     29 C           1.3069   -5.8592    6.2592 C.ar    1  LIG1       -0.0612
     30 C           0.1868   -6.4772    6.8144 C.ar    1  LIG1       -0.0617
     31 C           1.6367    3.4016   -1.5716 C.3     1  LIG1        0.0805
     32 C          -2.1733    2.3544    1.9614 C.3     1  LIG1        0.0790
     33 C           6.4372    0.0191   -1.6569 C.ar    1  LIG1        0.0315
     34 C           6.6154   -0.9993    0.4258 C.ar    1  LIG1        0.0315
     35 C           7.2380   -0.6121   -0.7365 C.ar    1  LIG1       -0.0254
     36 H          -0.3154   -0.9327    2.1713 H       1  LIG1        0.1753
     37 H           0.5558   -4.9617    1.9987 H       1  LIG1        0.0838
     38 H          -0.7670   -2.8334    3.8357 H       1  LIG1        0.0637
     39 H          -0.7409   -0.0976   -2.2218 H       1  LIG1        0.0655
     40 H          -4.3589    3.0975   -1.1239 H       1  LIG1        0.0655
     41 H          -2.1259    0.8520   -4.0182 H       1  LIG1        0.0619
     42 H          -3.9356    2.4644   -3.4758 H       1  LIG1        0.0619
     43 H          -2.2245   -5.1484    4.8239 H       1  LIG1        0.0623
     44 H           2.0415   -4.4982    4.7666 H       1  LIG1        0.0623
     45 H          -1.9541   -6.7034    6.7248 H       1  LIG1        0.0618
     46 H           2.2941   -6.0532    6.6710 H       1  LIG1        0.0618
     47 H           0.3012   -7.1556    7.6562 H       1  LIG1        0.0618
     48 H           1.0731    4.2596   -1.9509 H       1  LIG1        0.0660
     49 H           2.1611    2.9472   -2.4186 H       1  LIG1        0.0660
     50 H           2.3427    3.7720   -0.8205 H       1  LIG1        0.0660
     51 H          -2.5674    2.9678    2.7776 H       1  LIG1        0.0660
     52 H          -1.2221    2.7971    1.6488 H       1  LIG1        0.0660
     53 H          -2.0412    1.3423    2.3563 H       1  LIG1        0.0660
     54 H           6.8330    0.3593   -2.6096 H       1  LIG1        0.0831
     55 H           7.1663   -1.5007    1.2161 H       1  LIG1        0.0831
     56 H           8.2883   -0.7926   -0.9163 H       1  LIG1        0.0648
@<TRIPOS>BOND
     1     1     4    2
     2     1     5    2
     3     1     7    1
     4     1    16    1
     5     2    13    1
     6     2    15    1
     7     3    14    1
     8     3    31    1
     9     6    18    1
    10     6    32    1
    11     7    12    1
    12     8    12   ar
    13     8    17   ar
    14     9    14   ar
    15     9    17   ar
    16    10    22   ar
    17    10    33   ar
    18    11    22   ar
    19    11    34   ar
    20    12    13   ar
    21    13    14   ar
    22    15    18   ar
    23    15    21   ar
    24    16    19    2
    25    17    22    1
    26    18    23   ar
    27    19    20    1
    28    20    26   ar
    29    20    27   ar
    30    21    24   ar
    31    23    25   ar
    32    24    25   ar
    33    26    28   ar
    34    27    29   ar
    35    28    30   ar
    36    29    30   ar
    37    33    35   ar
    38    34    35   ar
    39     7    36    1
    40    16    37    1
    41    19    38    1
    42    21    39    1
    43    23    40    1
    44    24    41    1
    45    25    42    1
    46    26    43    1
    47    27    44    1
    48    28    45    1
    49    29    46    1
    50    30    47    1
    51    31    48    1
    52    31    49    1
    53    31    50    1
    54    32    51    1
    55    32    52    1
    56    32    53    1
    57    33    54    1
    58    34    55    1
    59    35    56    1
@<TRIPOS>MOLECULE
9957262
 56 59 0 0 0
SMALL
GASTEIGER

@<TRIPOS>ATOM
      1 S           0.4209   -1.0136    3.3201 S.O2    1  LIG1        0.0668
      2 O          -0.9362    0.4692    0.3364 O.3     1  LIG1       -0.4435
      3 O           0.6495    2.5731   -0.8029 O.3     1  LIG1       -0.4771
      4 O           0.2483   -2.2107    4.1184 O.2     1  LIG1       -0.1505
      5 O          -0.6393   -0.0226    3.3072 O.2     1  LIG1       -0.1505
      6 O          -0.4175   -0.1600   -2.4060 O.3     1  LIG1       -0.4914
      7 N           0.5577   -1.5422    1.7128 N.pl3   1  LIG1       -0.1968
      8 N           2.4553   -0.7550    0.7185 N.ar    1  LIG1       -0.2044
      9 N           2.5619    1.2544   -0.5342 N.ar    1  LIG1       -0.1867
     10 N           5.2825   -0.7179    0.6833 N.ar    1  LIG1       -0.2331
     11 N           5.0674    0.2546   -1.4934 N.ar    1  LIG1       -0.2331
     12 C           1.1342   -0.5805    0.8265 C.ar    1  LIG1        0.1883
     13 C           0.4302    0.4564    0.2504 C.ar    1  LIG1        0.2307
     14 C           1.2352    1.4048   -0.3572 C.ar    1  LIG1        0.2639
     15 C          -1.6659    0.9882   -0.7177 C.ar    1  LIG1        0.1702
     16 C           1.9041   -0.2386    3.7919 C.2     1  LIG1        0.0729
     17 C           3.1226    0.1410   -0.0258 C.ar    1  LIG1        0.2027
     18 C          -1.4062    0.7351   -2.0776 C.ar    1  LIG1        0.1621
     19 C           1.8523    0.7576    4.6917 C.2     1  LIG1       -0.0353
     20 C           3.0358    1.5327    5.0614 C.ar    1  LIG1       -0.0237
     21 C          -2.7294    1.8197   -0.3529 C.ar    1  LIG1       -0.0157
     22 C           4.5615   -0.1129   -0.2916 C.ar    1  LIG1        0.1978
     23 C          -2.1901    1.3605   -3.0544 C.ar    1  LIG1       -0.0163
     24 C          -3.5013    2.4428   -1.3332 C.ar    1  LIG1       -0.0581
     25 C          -3.2247    2.2232   -2.6826 C.ar    1  LIG1       -0.0581
     26 C           3.9214    1.0769    6.0403 C.ar    1  LIG1       -0.0546
     27 C           3.2755    2.7593    4.4317 C.ar    1  LIG1       -0.0546
     28 C           5.0351    1.8434    6.3898 C.ar    1  LIG1       -0.0612
     29 C           4.3896    3.5235    4.7795 C.ar    1  LIG1       -0.0612
     30 C           5.2701    3.0660    5.7604 C.ar    1  LIG1       -0.0617
     31 C           1.5418    3.4875   -1.4302 C.3     1  LIG1        0.0805
     32 C           0.4105    0.2586   -3.4906 C.3     1  LIG1        0.0790
     33 C           6.5814   -0.9404    0.4207 C.ar    1  LIG1        0.0315
     34 C           6.3725   -0.0077   -1.6991 C.ar    1  LIG1        0.0315
     35 C           7.1861   -0.6024   -0.7661 C.ar    1  LIG1       -0.0254
     36 H          -0.3840   -1.8064    1.4111 H       1  LIG1        0.1753
     37 H           2.8192   -0.5640    3.3224 H       1  LIG1        0.0838
     38 H           0.9159    1.0721    5.1519 H       1  LIG1        0.0637
     39 H          -2.9423    1.9984    0.6967 H       1  LIG1        0.0655
     40 H          -2.0219    1.1784   -4.1097 H       1  LIG1        0.0655
     41 H          -4.3167    3.1017   -1.0463 H       1  LIG1        0.0619
     42 H          -3.8232    2.7114   -3.4461 H       1  LIG1        0.0619
     43 H           3.7474    0.1287    6.5447 H       1  LIG1        0.0623
     44 H           2.5936    3.1306    3.6685 H       1  LIG1        0.0623
     45 H           5.7200    1.4902    7.1553 H       1  LIG1        0.0618
     46 H           4.5707    4.4760    4.2885 H       1  LIG1        0.0618
     47 H           6.1366    3.6636    6.0340 H       1  LIG1        0.0618
     48 H           0.9361    4.2449   -1.9331 H       1  LIG1        0.0660
     49 H           2.1626    3.0098   -2.1956 H       1  LIG1        0.0660
     50 H           2.1604    3.9878   -0.6788 H       1  LIG1        0.0660
     51 H           1.3407   -0.3191   -3.4417 H       1  LIG1        0.0660
     52 H           0.6748    1.3189   -3.4232 H       1  LIG1        0.0660
     53 H          -0.0683    0.0430   -4.4506 H       1  LIG1        0.0660
     54 H           7.1390   -1.4156    1.2240 H       1  LIG1        0.0831
     55 H           6.7564    0.2870   -2.6727 H       1  LIG1        0.0831
     56 H           8.2321   -0.7920   -0.9502 H       1  LIG1        0.0648
@<TRIPOS>BOND
     1     1     4    2
     2     1     5    2
     3     1     7    1
     4     1    16    1
     5     2    13    1
     6     2    15    1
     7     3    14    1
     8     3    31    1
     9     6    18    1
    10     6    32    1
    11     7    12    1
    12     8    12   ar
    13     8    17   ar
    14     9    14   ar
    15     9    17   ar
    16    10    22   ar
    17    10    33   ar
    18    11    22   ar
    19    11    34   ar
    20    12    13   ar
    21    13    14   ar
    22    15    18   ar
    23    15    21   ar
    24    16    19    2
    25    17    22    1
    26    18    23   ar
    27    19    20    1
    28    20    26   ar
    29    20    27   ar
    30    21    24   ar
    31    23    25   ar
    32    24    25   ar
    33    26    28   ar
    34    27    29   ar
    35    28    30   ar
    36    29    30   ar
    37    33    35   ar
    38    34    35   ar
    39     7    36    1
    40    16    37    1
    41    19    38    1
    42    21    39    1
    43    23    40    1
    44    24    41    1
    45    25    42    1
    46    26    43    1
    47    27    44    1
    48    28    45    1
    49    29    46    1
    50    30    47    1
    51    31    48    1
    52    31    49    1
    53    31    50    1
    54    32    51    1
    55    32    52    1
    56    32    53    1
    57    33    54    1
    58    34    55    1
    59    35    56    1
@<TRIPOS>MOLECULE
9957262
 56 59 0 0 0
SMALL
GASTEIGER

@<TRIPOS>ATOM
      1 S          -0.1392   -2.7468    1.0618 S.O2    1  LIG1        0.0668
      2 O          -0.8747    0.7250    0.4763 O.3     1  LIG1       -0.4435
      3 O           0.7410    2.5554   -1.0179 O.3     1  LIG1       -0.4771
      4 O           0.6344   -3.0604   -0.1215 O.2     1  LIG1       -0.1505
      5 O          -1.5682   -2.5344    0.9598 O.2     1  LIG1       -0.1505
      6 O          -3.0327    2.7038    0.8478 O.3     1  LIG1       -0.4914
      7 N           0.4434   -1.3243    1.7783 N.pl3   1  LIG1       -0.1968
      8 N           2.4374   -0.7193    0.7670 N.ar    1  LIG1       -0.2044
      9 N           2.5998    1.1765   -0.6643 N.ar    1  LIG1       -0.1867
     10 N           5.1775    0.3611   -1.3587 N.ar    1  LIG1       -0.2331
     11 N           5.2457   -0.9270    0.6520 N.ar    1  LIG1       -0.2331
     12 C           1.1300   -0.4552    0.8818 C.ar    1  LIG1        0.1883
     13 C           0.4634    0.5663    0.2353 C.ar    1  LIG1        0.2307
     14 C           1.2839    1.3998   -0.4931 C.ar    1  LIG1        0.2639
     15 C          -1.7005    1.1170   -0.5538 C.ar    1  LIG1        0.1702
     16 C           0.1411   -3.9788    2.2527 C.2     1  LIG1        0.0729
     17 C           3.1367    0.0995   -0.0453 C.ar    1  LIG1        0.2027
     18 C          -2.7150    2.0571   -0.3166 C.ar    1  LIG1        0.1621
     19 C          -0.2729   -3.7771    3.5140 C.2     1  LIG1       -0.0353
     20 C          -0.0735   -4.7424    4.5980 C.ar    1  LIG1       -0.0237
     21 C          -1.5849    0.5226   -1.8234 C.ar    1  LIG1       -0.0157
     22 C           4.5872   -0.1727   -0.2602 C.ar    1  LIG1        0.1978
     23 C          -3.5580    2.4227   -1.3766 C.ar    1  LIG1       -0.0163
     24 C          -2.4234    0.9105   -2.8689 C.ar    1  LIG1       -0.0581
     25 C          -3.4080    1.8662   -2.6470 C.ar    1  LIG1       -0.0581
     26 C           0.4317   -4.2900    5.8235 C.ar    1  LIG1       -0.0546
     27 C          -0.4351   -6.0881    4.4658 C.ar    1  LIG1       -0.0546
     28 C           0.5901   -5.1724    6.8943 C.ar    1  LIG1       -0.0612
     29 C          -0.2801   -6.9692    5.5392 C.ar    1  LIG1       -0.0612
     30 C           0.2334   -6.5116    6.7518 C.ar    1  LIG1       -0.0617
     31 C           1.6802    3.3784   -1.7012 C.3     1  LIG1        0.0805
     32 C          -2.1946    2.5396    1.9790 C.3     1  LIG1        0.0790
     33 C           6.4847    0.0987   -1.5351 C.ar    1  LIG1        0.0315
     34 C           6.5536   -1.1476    0.4257 C.ar    1  LIG1        0.0315
     35 C           7.2310   -0.6561   -0.6639 C.ar    1  LIG1       -0.0254
     36 H          -0.3839   -0.8572    2.1530 H       1  LIG1        0.1753
     37 H           0.6560   -4.8694    1.9237 H       1  LIG1        0.0838
     38 H          -0.7708   -2.8540    3.8024 H       1  LIG1        0.0637
     39 H          -0.8421   -0.2480   -2.0140 H       1  LIG1        0.0655
     40 H          -4.3437    3.1556   -1.2055 H       1  LIG1        0.0655
     41 H          -2.3116    0.4606   -3.8522 H       1  LIG1        0.0619
     42 H          -4.0678    2.1715   -3.4549 H       1  LIG1        0.0619
     43 H           0.7131   -3.2474    5.9537 H       1  LIG1        0.0623
     44 H          -0.8572   -6.4607    3.5354 H       1  LIG1        0.0623
     45 H           0.9883   -4.8130    7.8397 H       1  LIG1        0.0618
     46 H          -0.5683   -8.0117    5.4311 H       1  LIG1        0.0618
     47 H           0.3510   -7.1976    7.5869 H       1  LIG1        0.0618
     48 H           1.1434    4.2565   -2.0726 H       1  LIG1        0.0660
     49 H           2.1100    2.8593   -2.5645 H       1  LIG1        0.0660
     50 H           2.4638    3.7314   -1.0218 H       1  LIG1        0.0660
     51 H          -2.5807    3.1847    2.7741 H       1  LIG1        0.0660
     52 H          -1.1708    2.8635    1.7669 H       1  LIG1        0.0660
     53 H          -2.2303    1.5117    2.3532 H       1  LIG1        0.0660
     54 H           6.9269    0.5287   -2.4290 H       1  LIG1        0.0831
     55 H           7.0567   -1.7530    1.1741 H       1  LIG1        0.0831
     56 H           8.2817   -0.8510   -0.8254 H       1  LIG1        0.0648
@<TRIPOS>BOND
     1     1     4    2
     2     1     5    2
     3     1     7    1
     4     1    16    1
     5     2    13    1
     6     2    15    1
     7     3    14    1
     8     3    31    1
     9     6    18    1
    10     6    32    1
    11     7    12    1
    12     8    12   ar
    13     8    17   ar
    14     9    14   ar
    15     9    17   ar
    16    10    22   ar
    17    10    33   ar
    18    11    22   ar
    19    11    34   ar
    20    12    13   ar
    21    13    14   ar
    22    15    18   ar
    23    15    21   ar
    24    16    19    2
    25    17    22    1
    26    18    23   ar
    27    19    20    1
    28    20    26   ar
    29    20    27   ar
    30    21    24   ar
    31    23    25   ar
    32    24    25   ar
    33    26    28   ar
    34    27    29   ar
    35    28    30   ar
    36    29    30   ar
    37    33    35   ar
    38    34    35   ar
    39     7    36    1
    40    16    37    1
    41    19    38    1
    42    21    39    1
    43    23    40    1
    44    24    41    1
    45    25    42    1
    46    26    43    1
    47    27    44    1
    48    28    45    1
    49    29    46    1
    50    30    47    1
    51    31    48    1
    52    31    49    1
    53    31    50    1
    54    32    51    1
    55    32    52    1
    56    32    53    1
    57    33    54    1
    58    34    55    1
    59    35    56    1
@<TRIPOS>MOLECULE
9957262
 56 59 0 0 0
SMALL
GASTEIGER

@<TRIPOS>ATOM
      1 S          -0.2029   -2.8093    0.9437 S.O2    1  LIG1        0.0668
      2 O          -0.9067    0.6191    0.4329 O.3     1  LIG1       -0.4435
      3 O           0.6944    2.3494   -1.2209 O.3     1  LIG1       -0.4771
      4 O           0.5249   -3.0480   -0.2839 O.2     1  LIG1       -0.1505
      5 O          -1.6340   -2.5812    0.9077 O.2     1  LIG1       -0.1505
      6 O          -2.9348    2.7392    0.8040 O.3     1  LIG1       -0.4914
      7 N           0.4127   -1.4348    1.7291 N.pl3   1  LIG1       -0.1968
      8 N           2.4094   -0.8106    0.7401 N.ar    1  LIG1       -0.2044
      9 N           2.5528    1.0091   -0.7891 N.ar    1  LIG1       -0.1867
     10 N           5.1624    0.2393   -1.3918 N.ar    1  LIG1       -0.2331
     11 N           5.2144   -1.0008    0.6506 N.ar    1  LIG1       -0.2331
     12 C           1.1011   -0.5447    0.8513 C.ar    1  LIG1        0.1883
     13 C           0.4274    0.4518    0.1729 C.ar    1  LIG1        0.2307
     14 C           1.2357    1.2312   -0.6258 C.ar    1  LIG1        0.2639
     15 C          -1.7432    1.0293   -0.5788 C.ar    1  LIG1        0.1702
     16 C           0.1141   -4.0974    2.0599 C.2     1  LIG1        0.0729
     17 C           3.1023   -0.0227   -0.1074 C.ar    1  LIG1        0.2027
     18 C          -2.6915    2.0358   -0.3452 C.ar    1  LIG1        0.1621
     19 C          -0.4502   -5.2954    1.8436 C.2     1  LIG1       -0.0353
     20 C          -0.3340   -6.4564    2.7407 C.ar    1  LIG1       -0.0237
     21 C          -1.7007    0.3858   -1.8288 C.ar    1  LIG1       -0.0157
     22 C           4.5603   -0.2786   -0.2930 C.ar    1  LIG1        0.1978
     23 C          -3.5373    2.4210   -1.3958 C.ar    1  LIG1       -0.0163
     24 C          -2.5421    0.7914   -2.8640 C.ar    1  LIG1       -0.0581
     25 C          -3.4582    1.8156   -2.6500 C.ar    1  LIG1       -0.0581
     26 C          -1.3123   -7.4590    2.6622 C.ar    1  LIG1       -0.0546
     27 C           0.7181   -6.6227    3.6508 C.ar    1  LIG1       -0.0546
     28 C          -1.2545   -8.5849    3.4889 C.ar    1  LIG1       -0.0612
     29 C           0.7747   -7.7473    4.4807 C.ar    1  LIG1       -0.0612
     30 C          -0.2128   -8.7262    4.4012 C.ar    1  LIG1       -0.0617
     31 C           1.4690    2.8442   -2.3082 C.3     1  LIG1        0.0805
     32 C          -2.1296    2.4990    1.9458 C.3     1  LIG1        0.0790
     33 C           6.4794   -0.0018   -1.5332 C.ar    1  LIG1        0.0315
     34 C           6.5301   -1.2019    0.4556 C.ar    1  LIG1        0.0315
     35 C           7.2207   -0.7202   -0.6323 C.ar    1  LIG1       -0.0254
     36 H          -0.4032   -0.9712    2.1335 H       1  LIG1        0.1753
     37 H           0.7334   -3.8631    2.9115 H       1  LIG1        0.0838
     38 H          -1.0790   -5.4401    0.9649 H       1  LIG1        0.0637
     39 H          -1.0095   -0.4345   -2.0099 H       1  LIG1        0.0655
     40 H          -4.2706    3.2076   -1.2289 H       1  LIG1        0.0655
     41 H          -2.4865    0.3039   -3.8354 H       1  LIG1        0.0619
     42 H          -4.1193    2.1362   -3.4496 H       1  LIG1        0.0619
     43 H          -2.1394   -7.3715    1.9602 H       1  LIG1        0.0623
     44 H           1.5157   -5.8886    3.7282 H       1  LIG1        0.0623
     45 H          -2.0249   -9.3493    3.4190 H       1  LIG1        0.0618
     46 H           1.5933   -7.8598    5.1862 H       1  LIG1        0.0618
     47 H          -0.1682   -9.6002    5.0461 H       1  LIG1        0.0618
     48 H           0.8939    3.6392   -2.7945 H       1  LIG1        0.0660
     49 H           1.6515    2.0630   -3.0547 H       1  LIG1        0.0660
     50 H           2.4104    3.2804   -1.9578 H       1  LIG1        0.0660
     51 H          -2.4789    3.1617    2.7438 H       1  LIG1        0.0660
     52 H          -1.0822    2.7494    1.7518 H       1  LIG1        0.0660
     53 H          -2.2456    1.4720    2.3072 H       1  LIG1        0.0660
     54 H           6.9313    0.4183   -2.4289 H       1  LIG1        0.0831
     55 H           7.0302   -1.7793    1.2273 H       1  LIG1        0.0831
     56 H           8.2791   -0.8985   -0.7668 H       1  LIG1        0.0648
@<TRIPOS>BOND
     1     1     4    2
     2     1     5    2
     3     1     7    1
     4     1    16    1
     5     2    13    1
     6     2    15    1
     7     3    14    1
     8     3    31    1
     9     6    18    1
    10     6    32    1
    11     7    12    1
    12     8    12   ar
    13     8    17   ar
    14     9    14   ar
    15     9    17   ar
    16    10    22   ar
    17    10    33   ar
    18    11    22   ar
    19    11    34   ar
    20    12    13   ar
    21    13    14   ar
    22    15    18   ar
    23    15    21   ar
    24    16    19    2
    25    17    22    1
    26    18    23   ar
    27    19    20    1
    28    20    26   ar
    29    20    27   ar
    30    21    24   ar
    31    23    25   ar
    32    24    25   ar
    33    26    28   ar
    34    27    29   ar
    35    28    30   ar
    36    29    30   ar
    37    33    35   ar
    38    34    35   ar
    39     7    36    1
    40    16    37    1
    41    19    38    1
    42    21    39    1
    43    23    40    1
    44    24    41    1
    45    25    42    1
    46    26    43    1
    47    27    44    1
    48    28    45    1
    49    29    46    1
    50    30    47    1
    51    31    48    1
    52    31    49    1
    53    31    50    1
    54    32    51    1
    55    32    52    1
    56    32    53    1
    57    33    54    1
    58    34    55    1
    59    35    56    1
@<TRIPOS>MOLECULE
9957262
 56 59 0 0 0
SMALL
GASTEIGER

@<TRIPOS>ATOM
      1 S           0.3547   -1.1277    3.2149 S.O2    1  LIG1        0.0668
      2 O          -0.8880    0.7528    0.4570 O.3     1  LIG1       -0.4435
      3 O           0.7842    2.6970   -0.7897 O.3     1  LIG1       -0.4771
      4 O          -0.9998   -1.4217    3.6379 O.2     1  LIG1       -0.1505
      5 O           0.9039    0.1955    3.4412 O.2     1  LIG1       -0.1505
      6 O          -0.6624   -0.4480   -2.0852 O.3     1  LIG1       -0.4914
      7 N           0.3386   -1.4565    1.5519 N.pl3   1  LIG1       -0.1968
      8 N           2.3908   -0.7849    0.6897 N.ar    1  LIG1       -0.2044
      9 N           2.6293    1.2834   -0.4806 N.ar    1  LIG1       -0.1867
     10 N           5.3637    0.8768   -0.6353 N.ar    1  LIG1       -0.2331
     11 N           5.0507   -1.3875    0.0537 N.ar    1  LIG1       -0.2331
     12 C           1.0821   -0.5148    0.7819 C.ar    1  LIG1        0.1883
     13 C           0.4595    0.6077    0.2715 C.ar    1  LIG1        0.2307
     14 C           1.3091    1.5033   -0.3349 C.ar    1  LIG1        0.2639
     15 C          -1.6588    1.1319   -0.6230 C.ar    1  LIG1        0.1702
     16 C           1.3797   -2.3387    3.9111 C.2     1  LIG1        0.0729
     17 C           3.1311    0.1328    0.0290 C.ar    1  LIG1        0.2027
     18 C          -1.5645    0.5688   -1.9085 C.ar    1  LIG1        0.1621
     19 C           2.0812   -2.0550    5.0194 C.2     1  LIG1       -0.0353
     20 C           2.8763   -3.0351    5.7748 C.ar    1  LIG1       -0.0237
     21 C          -2.6230    2.1064   -0.3437 C.ar    1  LIG1       -0.0157
     22 C           4.5850   -0.1372   -0.1814 C.ar    1  LIG1        0.1978
     23 C          -2.4205    1.0377   -2.9117 C.ar    1  LIG1       -0.0163
     24 C          -3.4695    2.5625   -1.3507 C.ar    1  LIG1       -0.0581
     25 C          -3.3624    2.0342   -2.6345 C.ar    1  LIG1       -0.0581
     26 C           2.5195   -4.3884    5.8589 C.ar    1  LIG1       -0.0546
     27 C           3.9767   -2.5860    6.5172 C.ar    1  LIG1       -0.0546
     28 C           3.2579   -5.2739    6.6496 C.ar    1  LIG1       -0.0612
     29 C           4.7143   -3.4710    7.3092 C.ar    1  LIG1       -0.0612
     30 C           4.3550   -4.8151    7.3743 C.ar    1  LIG1       -0.0617
     31 C           1.7325    3.5262   -1.4522 C.3     1  LIG1        0.0805
     32 C          -0.2992   -0.7598   -3.4253 C.3     1  LIG1        0.0790
     33 C           6.6630    0.6016   -0.8465 C.ar    1  LIG1        0.0315
     34 C           6.3578   -1.6040   -0.1821 C.ar    1  LIG1        0.0315
     35 C           7.2195   -0.6358   -0.6373 C.ar    1  LIG1       -0.0254
     36 H          -0.6441   -1.4596    1.2704 H       1  LIG1        0.1753
     37 H           1.3483   -3.3149    3.4528 H       1  LIG1        0.0838
     38 H           2.0732   -1.0446    5.4266 H       1  LIG1        0.0637
     39 H          -2.7035    2.5163    0.6600 H       1  LIG1        0.0655
     40 H          -2.3942    0.6348   -3.9189 H       1  LIG1        0.0655
     41 H          -4.2112    3.3264   -1.1329 H       1  LIG1        0.0619
     42 H          -4.0236    2.3884   -3.4219 H       1  LIG1        0.0619
     43 H           1.6501   -4.7711    5.3306 H       1  LIG1        0.0623
     44 H           4.2701   -1.5387    6.4885 H       1  LIG1        0.0623
     45 H           2.9665   -6.3195    6.7084 H       1  LIG1        0.0618
     46 H           5.5643   -3.1073    7.8806 H       1  LIG1        0.0618
     47 H           4.9233   -5.5020    7.9958 H       1  LIG1        0.0618
     48 H           1.2061    4.4218   -1.7963 H       1  LIG1        0.0660
     49 H           2.1509    3.0276   -2.3326 H       1  LIG1        0.0660
     50 H           2.5238    3.8478   -0.7668 H       1  LIG1        0.0660
     51 H           0.5479   -1.4515   -3.3893 H       1  LIG1        0.0660
     52 H           0.0235    0.1330   -3.9720 H       1  LIG1        0.0660
     53 H          -1.1199   -1.2660   -3.9435 H       1  LIG1        0.0660
     54 H           7.2611    1.4347   -1.2037 H       1  LIG1        0.0831
     55 H           6.7011   -2.6164    0.0113 H       1  LIG1        0.0831
     56 H           8.2661   -0.8347   -0.8193 H       1  LIG1        0.0648
@<TRIPOS>BOND
     1     1     4    2
     2     1     5    2
     3     1     7    1
     4     1    16    1
     5     2    13    1
     6     2    15    1
     7     3    14    1
     8     3    31    1
     9     6    18    1
    10     6    32    1
    11     7    12    1
    12     8    12   ar
    13     8    17   ar
    14     9    14   ar
    15     9    17   ar
    16    10    22   ar
    17    10    33   ar
    18    11    22   ar
    19    11    34   ar
    20    12    13   ar
    21    13    14   ar
    22    15    18   ar
    23    15    21   ar
    24    16    19    2
    25    17    22    1
    26    18    23   ar
    27    19    20    1
    28    20    26   ar
    29    20    27   ar
    30    21    24   ar
    31    23    25   ar
    32    24    25   ar
    33    26    28   ar
    34    27    29   ar
    35    28    30   ar
    36    29    30   ar
    37    33    35   ar
    38    34    35   ar
    39     7    36    1
    40    16    37    1
    41    19    38    1
    42    21    39    1
    43    23    40    1
    44    24    41    1
    45    25    42    1
    46    26    43    1
    47    27    44    1
    48    28    45    1
    49    29    46    1
    50    30    47    1
    51    31    48    1
    52    31    49    1
    53    31    50    1
    54    32    51    1
    55    32    52    1
    56    32    53    1
    57    33    54    1
    58    34    55    1
    59    35    56    1
@<TRIPOS>MOLECULE
9957262
 56 59 0 0 0
SMALL
GASTEIGER

@<TRIPOS>ATOM
      1 S           0.3749   -1.1020    3.2219 S.O2    1  LIG1        0.0668
      2 O          -0.8827    0.7689    0.4565 O.3     1  LIG1       -0.4435
      3 O           0.7922    2.7037   -0.8004 O.3     1  LIG1       -0.4771
      4 O          -0.9797   -1.3810    3.6594 O.2     1  LIG1       -0.1505
      5 O           0.9394    0.2151    3.4396 O.2     1  LIG1       -0.1505
      6 O          -0.6600   -0.4426   -2.0817 O.3     1  LIG1       -0.4914
      7 N           0.3410   -1.4371    1.5612 N.pl3   1  LIG1       -0.1968
      8 N           2.3920   -0.7773    0.6888 N.ar    1  LIG1       -0.2044
      9 N           2.6341    1.2860   -0.4893 N.ar    1  LIG1       -0.1867
     10 N           5.0505   -1.3876    0.0628 N.ar    1  LIG1       -0.2331
     11 N           5.3661    0.8686   -0.6521 N.ar    1  LIG1       -0.2331
     12 C           1.0844   -0.5027    0.7822 C.ar    1  LIG1        0.1883
     13 C           0.4639    0.6196    0.2687 C.ar    1  LIG1        0.2307
     14 C           1.3154    1.5102   -0.3422 C.ar    1  LIG1        0.2639
     15 C          -1.6553    1.1424   -0.6244 C.ar    1  LIG1        0.1702
     16 C           1.3962   -2.3202    3.9132 C.2     1  LIG1        0.0729
     17 C           3.1337    0.1358    0.0240 C.ar    1  LIG1        0.2027
     18 C          -1.5622    0.5743   -1.9078 C.ar    1  LIG1        0.1621
     19 C           2.0879   -2.0451    5.0296 C.2     1  LIG1       -0.0353
     20 C           2.8813   -3.0297    5.7809 C.ar    1  LIG1       -0.0237
     21 C          -2.6204    2.1168   -0.3481 C.ar    1  LIG1       -0.0157
     22 C           4.5866   -0.1392   -0.1859 C.ar    1  LIG1        0.1978
     23 C          -2.4197    1.0386   -2.9119 C.ar    1  LIG1       -0.0163
     24 C          -3.4685    2.5684   -1.3559 C.ar    1  LIG1       -0.0581
     25 C          -3.3622    2.0356   -2.6378 C.ar    1  LIG1       -0.0581
     26 C           2.5206   -4.3823    5.8596 C.ar    1  LIG1       -0.0546
     27 C           3.9826   -2.5858    6.5249 C.ar    1  LIG1       -0.0546
     28 C           3.2564   -5.2725    6.6471 C.ar    1  LIG1       -0.0612
     29 C           4.7178   -3.4760    7.3132 C.ar    1  LIG1       -0.0612
     30 C           4.3547   -4.8192    7.3733 C.ar    1  LIG1       -0.0617
     31 C           1.7421    3.5302   -1.4632 C.3     1  LIG1        0.0805
     32 C          -0.2966   -0.7579   -3.4210 C.3     1  LIG1        0.0790
     33 C           6.3566   -1.6087   -0.1720 C.ar    1  LIG1        0.0315
     34 C           6.6646    0.5891   -0.8621 C.ar    1  LIG1        0.0315
     35 C           7.2192   -0.6470   -0.6395 C.ar    1  LIG1       -0.0254
     36 H          -0.6441   -1.4351    1.2876 H       1  LIG1        0.1753
     37 H           1.3738   -3.2908    3.4433 H       1  LIG1        0.0838
     38 H           2.0725   -1.0392    5.4476 H       1  LIG1        0.0637
     39 H          -2.7003    2.5306    0.6543 H       1  LIG1        0.0655
     40 H          -2.3943    0.6316   -3.9176 H       1  LIG1        0.0655
     41 H          -4.2104    3.3326   -1.1402 H       1  LIG1        0.0619
     42 H          -4.0242    2.3863   -3.4258 H       1  LIG1        0.0619
     43 H           1.6499   -4.7601    5.3297 H       1  LIG1        0.0623
     44 H           4.2788   -1.5392    6.5005 H       1  LIG1        0.0623
     45 H           2.9622   -6.3176    6.7021 H       1  LIG1        0.0618
     46 H           5.5689   -3.1167    7.8861 H       1  LIG1        0.0618
     47 H           4.9212   -5.5099    7.9923 H       1  LIG1        0.0618
     48 H           1.2179    4.4261   -1.8094 H       1  LIG1        0.0660
     49 H           2.1593    3.0287   -2.3435 H       1  LIG1        0.0660
     50 H           2.5342    3.8511   -0.7783 H       1  LIG1        0.0660
     51 H           0.5517   -1.4483   -3.3829 H       1  LIG1        0.0660
     52 H           0.0251    0.1338   -3.9703 H       1  LIG1        0.0660
     53 H          -1.1164   -1.2667   -3.9376 H       1  LIG1        0.0660
     54 H           6.6990   -2.6189    0.0325 H       1  LIG1        0.0831
     55 H           7.2632    1.4178   -1.2290 H       1  LIG1        0.0831
     56 H           8.2655   -0.8497   -0.8198 H       1  LIG1        0.0648
@<TRIPOS>BOND
     1     1     4    2
     2     1     5    2
     3     1     7    1
     4     1    16    1
     5     2    13    1
     6     2    15    1
     7     3    14    1
     8     3    31    1
     9     6    18    1
    10     6    32    1
    11     7    12    1
    12     8    12   ar
    13     8    17   ar
    14     9    14   ar
    15     9    17   ar
    16    10    22   ar
    17    10    33   ar
    18    11    22   ar
    19    11    34   ar
    20    12    13   ar
    21    13    14   ar
    22    15    18   ar
    23    15    21   ar
    24    16    19    2
    25    17    22    1
    26    18    23   ar
    27    19    20    1
    28    20    26   ar
    29    20    27   ar
    30    21    24   ar
    31    23    25   ar
    32    24    25   ar
    33    26    28   ar
    34    27    29   ar
    35    28    30   ar
    36    29    30   ar
    37    33    35   ar
    38    34    35   ar
    39     7    36    1
    40    16    37    1
    41    19    38    1
    42    21    39    1
    43    23    40    1
    44    24    41    1
    45    25    42    1
    46    26    43    1
    47    27    44    1
    48    28    45    1
    49    29    46    1
    50    30    47    1
    51    31    48    1
    52    31    49    1
    53    31    50    1
    54    32    51    1
    55    32    52    1
    56    32    53    1
    57    33    54    1
    58    34    55    1
    59    35    56    1
@<TRIPOS>MOLECULE
9957262
 56 59 0 0 0
SMALL
GASTEIGER

@<TRIPOS>ATOM
      1 S          -0.1417   -2.8376    0.9706 S.O2    1  LIG1        0.0668
      2 O          -0.9079    0.6411    0.2566 O.3     1  LIG1       -0.4435
      3 O           0.7704    2.4221   -1.2680 O.3     1  LIG1       -0.4771
      4 O          -0.5843   -3.6294    2.0993 O.2     1  LIG1       -0.1505
      5 O           0.8998   -3.3517    0.1036 O.2     1  LIG1       -0.1505
      6 O          -3.0497    2.5734    0.8335 O.3     1  LIG1       -0.4914
      7 N           0.4304   -1.3956    1.6593 N.pl3   1  LIG1       -0.1968
      8 N           2.4131   -0.7394    0.7298 N.ar    1  LIG1       -0.2044
      9 N           2.6051    1.0678   -0.7989 N.ar    1  LIG1       -0.1867
     10 N           5.2147    0.2422   -1.3584 N.ar    1  LIG1       -0.2331
     11 N           5.2170   -0.9446    0.7157 N.ar    1  LIG1       -0.2331
     12 C           1.0946   -0.5096    0.7632 C.ar    1  LIG1        0.1883
     13 C           0.4363    0.4790    0.0575 C.ar    1  LIG1        0.2307
     14 C           1.2807    1.2816   -0.6841 C.ar    1  LIG1        0.2639
     15 C          -1.7005    1.1735   -0.7346 C.ar    1  LIG1        0.1702
     16 C          -1.5453   -2.4448    0.0294 C.2     1  LIG1        0.0729
     17 C           3.1345    0.0428   -0.0980 C.ar    1  LIG1        0.2027
     18 C          -2.7178    2.0795   -0.3995 C.ar    1  LIG1        0.1621
     19 C          -1.7247   -3.0509   -1.1557 C.2     1  LIG1       -0.0353
     20 C          -2.8493   -2.8477   -2.0854 C.ar    1  LIG1       -0.0237
     21 C          -1.5763    0.7312   -2.0638 C.ar    1  LIG1       -0.0157
     22 C           4.5916   -0.2315   -0.2511 C.ar    1  LIG1        0.1978
     23 C          -3.5606    2.5571   -1.4137 C.ar    1  LIG1       -0.0163
     24 C          -2.4121    1.2307   -3.0627 C.ar    1  LIG1       -0.0581
     25 C          -3.4037    2.1481   -2.7380 C.ar    1  LIG1       -0.0581
     26 C          -3.8539   -1.8909   -1.8942 C.ar    1  LIG1       -0.0546
     27 C          -2.8960   -3.6347   -3.2471 C.ar    1  LIG1       -0.0546
     28 C          -4.8632   -1.7120   -2.8461 C.ar    1  LIG1       -0.0612
     29 C          -3.9090   -3.4626   -4.1944 C.ar    1  LIG1       -0.0612
     30 C          -4.8900   -2.4962   -3.9960 C.ar    1  LIG1       -0.0617
     31 C           1.5836    2.9346   -2.3189 C.3     1  LIG1        0.0805
     32 C          -2.1221    2.4325    1.8985 C.3     1  LIG1        0.0790
     33 C           6.5241   -0.0380   -1.4848 C.ar    1  LIG1        0.0315
     34 C           6.5282   -1.1877    0.5358 C.ar    1  LIG1        0.0315
     35 C           7.2391   -0.7562   -0.5579 C.ar    1  LIG1       -0.0254
     36 H           1.1103   -1.6845    2.3659 H       1  LIG1        0.1753
     37 H          -2.2383   -1.7447    0.4676 H       1  LIG1        0.0838
     38 H          -0.9785   -3.7692   -1.4976 H       1  LIG1        0.0637
     39 H          -0.8345   -0.0144   -2.3381 H       1  LIG1        0.0655
     40 H          -4.3510    3.2619   -1.1635 H       1  LIG1        0.0655
     41 H          -2.2998    0.8867   -4.0877 H       1  LIG1        0.0619
     42 H          -4.0643    2.5358   -3.5088 H       1  LIG1        0.0619
     43 H          -3.8657   -1.2484   -1.0185 H       1  LIG1        0.0623
     44 H          -2.1388   -4.3943   -3.4325 H       1  LIG1        0.0623
     45 H          -5.6230   -0.9505   -2.6888 H       1  LIG1        0.0618
     46 H          -3.9266   -4.0818   -5.0876 H       1  LIG1        0.0618
     47 H          -5.6736   -2.3542   -4.7352 H       1  LIG1        0.0618
     48 H           1.0292    3.7448   -2.8022 H       1  LIG1        0.0660
     49 H           1.7815    2.1686   -3.0773 H       1  LIG1        0.0660
     50 H           2.5171    3.3535   -1.9293 H       1  LIG1        0.0660
     51 H          -2.4778    3.0497    2.7297 H       1  LIG1        0.0660
     52 H          -1.1291    2.8002    1.6215 H       1  LIG1        0.0660
     53 H          -2.0911    1.3988    2.2557 H       1  LIG1        0.0660
     54 H           6.9949    0.3442   -2.3860 H       1  LIG1        0.0831
     55 H           7.0053   -1.7617    1.3251 H       1  LIG1        0.0831
     56 H           8.2916   -0.9687   -0.6816 H       1  LIG1        0.0648
@<TRIPOS>BOND
     1     1     4    2
     2     1     5    2
     3     1     7    1
     4     1    16    1
     5     2    13    1
     6     2    15    1
     7     3    14    1
     8     3    31    1
     9     6    18    1
    10     6    32    1
    11     7    12    1
    12     8    12   ar
    13     8    17   ar
    14     9    14   ar
    15     9    17   ar
    16    10    22   ar
    17    10    33   ar
    18    11    22   ar
    19    11    34   ar
    20    12    13   ar
    21    13    14   ar
    22    15    18   ar
    23    15    21   ar
    24    16    19    2
    25    17    22    1
    26    18    23   ar
    27    19    20    1
    28    20    26   ar
    29    20    27   ar
    30    21    24   ar
    31    23    25   ar
    32    24    25   ar
    33    26    28   ar
    34    27    29   ar
    35    28    30   ar
    36    29    30   ar
    37    33    35   ar
    38    34    35   ar
    39     7    36    1
    40    16    37    1
    41    19    38    1
    42    21    39    1
    43    23    40    1
    44    24    41    1
    45    25    42    1
    46    26    43    1
    47    27    44    1
    48    28    45    1
    49    29    46    1
    50    30    47    1
    51    31    48    1
    52    31    49    1
    53    31    50    1
    54    32    51    1
    55    32    52    1
    56    32    53    1
    57    33    54    1
    58    34    55    1
    59    35    56    1
@<TRIPOS>MOLECULE
9957262
 56 59 0 0 0
SMALL
GASTEIGER

@<TRIPOS>ATOM
      1 S          -0.1097   -2.7339    1.1080 S.O2    1  LIG1        0.0668
      2 O          -0.8350    0.6736    0.4538 O.3     1  LIG1       -0.4435
      3 O           0.7487    2.4974   -1.0903 O.3     1  LIG1       -0.4771
      4 O           0.6222   -3.0748   -0.0916 O.2     1  LIG1       -0.1505
      5 O          -1.5382   -2.4934    1.0503 O.2     1  LIG1       -0.1505
      6 O          -2.9335    2.6330    0.8927 O.3     1  LIG1       -0.4914
      7 N           0.5246   -1.3209    1.7952 N.pl3   1  LIG1       -0.1968
      8 N           2.4951   -0.7206    0.7461 N.ar    1  LIG1       -0.2044
      9 N           2.6254    1.1484   -0.7213 N.ar    1  LIG1       -0.1867
     10 N           5.2056    0.3315   -1.4244 N.ar    1  LIG1       -0.2331
     11 N           5.3048   -0.8847    0.6298 N.ar    1  LIG1       -0.2331
     12 C           1.1873   -0.4659    0.8680 C.ar    1  LIG1        0.1883
     13 C           0.5015    0.5313    0.2045 C.ar    1  LIG1        0.2307
     14 C           1.3091    1.3628   -0.5448 C.ar    1  LIG1        0.2639
     15 C          -1.6752    1.0629   -0.5650 C.ar    1  LIG1        0.1702
     16 C           0.2038   -3.9416    2.3136 C.2     1  LIG1        0.0729
     17 C           3.1788    0.0899   -0.0865 C.ar    1  LIG1        0.2027
     18 C          -2.6696    2.0165   -0.3028 C.ar    1  LIG1        0.1621
     19 C          -0.3811   -3.8233    3.5175 C.2     1  LIG1       -0.0353
     20 C          -0.1547   -4.7696    4.6108 C.ar    1  LIG1       -0.0237
     21 C          -1.5736    0.4963   -1.8459 C.ar    1  LIG1       -0.0157
     22 C           4.6304   -0.1708   -0.3035 C.ar    1  LIG1        0.1978
     23 C          -3.4776    2.4648   -1.3548 C.ar    1  LIG1       -0.0163
     24 C          -2.3952    0.9439   -2.8817 C.ar    1  LIG1       -0.0581
     25 C          -3.3390    1.9373   -2.6393 C.ar    1  LIG1       -0.0581
     26 C          -1.2550   -5.3761    5.2274 C.ar    1  LIG1       -0.0546
     27 C           1.1328   -5.0372    5.0915 C.ar    1  LIG1       -0.0546
     28 C          -1.0702   -6.2534    6.2977 C.ar    1  LIG1       -0.0612
     29 C           1.3158   -5.9106    6.1667 C.ar    1  LIG1       -0.0612
     30 C           0.2149   -6.5201    6.7668 C.ar    1  LIG1       -0.0617
     31 C           1.6899    3.3704   -1.7050 C.3     1  LIG1        0.0805
     32 C          -2.6638    1.8893    2.0734 C.3     1  LIG1        0.0790
     33 C           6.5151    0.0799   -1.6009 C.ar    1  LIG1        0.0315
     34 C           6.6141   -1.0950    0.4025 C.ar    1  LIG1        0.0315
     35 C           7.2770   -0.6335   -0.7085 C.ar    1  LIG1       -0.0254
     36 H          -0.2710   -0.8388    2.2121 H       1  LIG1        0.1753
     37 H           0.8766   -4.7418    2.0482 H       1  LIG1        0.0838
     38 H          -1.0729   -3.0128    3.7370 H       1  LIG1        0.0637
     39 H          -0.8465   -0.2841   -2.0559 H       1  LIG1        0.0655
     40 H          -4.2277    3.2290   -1.1667 H       1  LIG1        0.0655
     41 H          -2.2925    0.5219   -3.8783 H       1  LIG1        0.0619
     42 H          -3.9738    2.2973   -3.4448 H       1  LIG1        0.0619
     43 H          -2.2647   -5.1752    4.8751 H       1  LIG1        0.0623
     44 H           2.0017   -4.5563    4.6480 H       1  LIG1        0.0623
     45 H          -1.9295   -6.7260    6.7662 H       1  LIG1        0.0618
     46 H           2.3169   -6.1102    6.5394 H       1  LIG1        0.0618
     47 H           0.3579   -7.1998    7.6031 H       1  LIG1        0.0618
     48 H           1.1414    4.2435   -2.0724 H       1  LIG1        0.0660
     49 H           2.1725    2.8929   -2.5642 H       1  LIG1        0.0660
     50 H           2.4312    3.7248   -0.9812 H       1  LIG1        0.0660
     51 H          -3.2696    2.3132    2.8806 H       1  LIG1        0.0660
     52 H          -1.6146    2.0022    2.3634 H       1  LIG1        0.0660
     53 H          -2.9401    0.8337    1.9762 H       1  LIG1        0.0660
     54 H           6.9449    0.4836   -2.5127 H       1  LIG1        0.0831
     55 H           7.1307   -1.6659    1.1685 H       1  LIG1        0.0831
     56 H           8.3293   -0.8199   -0.8707 H       1  LIG1        0.0648
@<TRIPOS>BOND
     1     1     4    2
     2     1     5    2
     3     1     7    1
     4     1    16    1
     5     2    13    1
     6     2    15    1
     7     3    14    1
     8     3    31    1
     9     6    18    1
    10     6    32    1
    11     7    12    1
    12     8    12   ar
    13     8    17   ar
    14     9    14   ar
    15     9    17   ar
    16    10    22   ar
    17    10    33   ar
    18    11    22   ar
    19    11    34   ar
    20    12    13   ar
    21    13    14   ar
    22    15    18   ar
    23    15    21   ar
    24    16    19    2
    25    17    22    1
    26    18    23   ar
    27    19    20    1
    28    20    26   ar
    29    20    27   ar
    30    21    24   ar
    31    23    25   ar
    32    24    25   ar
    33    26    28   ar
    34    27    29   ar
    35    28    30   ar
    36    29    30   ar
    37    33    35   ar
    38    34    35   ar
    39     7    36    1
    40    16    37    1
    41    19    38    1
    42    21    39    1
    43    23    40    1
    44    24    41    1
    45    25    42    1
    46    26    43    1
    47    27    44    1
    48    28    45    1
    49    29    46    1
    50    30    47    1
    51    31    48    1
    52    31    49    1
    53    31    50    1
    54    32    51    1
    55    32    52    1
    56    32    53    1
    57    33    54    1
    58    34    55    1
    59    35    56    1
@<TRIPOS>MOLECULE
9957262
 56 59 0 0 0
SMALL
GASTEIGER

@<TRIPOS>ATOM
      1 S           0.3675   -1.1106    3.1940 S.O2    1  LIG1        0.0668
      2 O          -0.8764    0.7559    0.4273 O.3     1  LIG1       -0.4435
      3 O           0.8035    2.7003   -0.8109 O.3     1  LIG1       -0.4771
      4 O          -0.9930   -1.3840    3.6188 O.2     1  LIG1       -0.1505
      5 O           0.9336    0.2047    3.4118 O.2     1  LIG1       -0.1505
      6 O          -0.5979   -0.3308   -2.1878 O.3     1  LIG1       -0.4914
      7 N           0.3467   -1.4510    1.5326 N.pl3   1  LIG1       -0.1968
      8 N           2.3992   -0.7866    0.6677 N.ar    1  LIG1       -0.2044
      9 N           2.6444    1.2820   -0.5000 N.ar    1  LIG1       -0.1867
     10 N           5.3766    0.8683   -0.6559 N.ar    1  LIG1       -0.2331
     11 N           5.0616   -1.3908    0.0496 N.ar    1  LIG1       -0.2331
     12 C           1.0908   -0.5141    0.7573 C.ar    1  LIG1        0.1883
     13 C           0.4713    0.6099    0.2461 C.ar    1  LIG1        0.2307
     14 C           1.3251    1.5057   -0.3542 C.ar    1  LIG1        0.2639
     15 C          -1.6473    1.1519   -0.6456 C.ar    1  LIG1        0.1702
     16 C           1.3762   -2.3320    3.8969 C.2     1  LIG1        0.0729
     17 C           3.1429    0.1298    0.0099 C.ar    1  LIG1        0.2027
     18 C          -1.5236    0.6535   -1.9533 C.ar    1  LIG1        0.1621
     19 C           2.0922   -2.0469    4.9957 C.2     1  LIG1       -0.0353
     20 C           2.8807   -3.0276    5.7580 C.ar    1  LIG1       -0.0237
     21 C          -2.6461    2.0822   -0.3394 C.ar    1  LIG1       -0.0157
     22 C           4.5969   -0.1424   -0.1960 C.ar    1  LIG1        0.1978
     23 C          -2.3933    1.1214   -2.9453 C.ar    1  LIG1       -0.0163
     24 C          -3.5000    2.5494   -1.3362 C.ar    1  LIG1       -0.0581
     25 C          -3.3700    2.0732   -2.6386 C.ar    1  LIG1       -0.0581
     26 C           2.5226   -4.3806    5.8424 C.ar    1  LIG1       -0.0546
     27 C           3.9771   -2.5781    6.5066 C.ar    1  LIG1       -0.0546
     28 C           3.2551   -5.2651    6.6397 C.ar    1  LIG1       -0.0612
     29 C           4.7086   -3.4620    7.3052 C.ar    1  LIG1       -0.0612
     30 C           4.3476   -4.8056    7.3707 C.ar    1  LIG1       -0.0617
     31 C           1.7576    3.5354   -1.4560 C.3     1  LIG1        0.0805
     32 C           0.0441   -0.2587   -3.4590 C.3     1  LIG1        0.0790
     33 C           6.6766    0.5917   -0.8612 C.ar    1  LIG1        0.0315
     34 C           6.3694   -1.6089   -0.1802 C.ar    1  LIG1        0.0315
     35 C           7.2325   -0.6442   -0.6403 C.ar    1  LIG1       -0.0254
     36 H          -0.6364   -1.4552    1.2529 H       1  LIG1        0.1753
     37 H           1.3251   -3.3128    3.4501 H       1  LIG1        0.0838
     38 H           2.1017   -1.0315    5.3907 H       1  LIG1        0.0637
     39 H          -2.7502    2.4487    0.6790 H       1  LIG1        0.0655
     40 H          -2.3476    0.7410   -3.9608 H       1  LIG1        0.0655
     41 H          -4.2687    3.2789   -1.0945 H       1  LIG1        0.0619
     42 H          -4.0416    2.4307   -3.4153 H       1  LIG1        0.0619
     43 H           1.6568   -4.7644    5.3091 H       1  LIG1        0.0623
     44 H           4.2720   -1.5311    6.4781 H       1  LIG1        0.0623
     45 H           2.9626   -6.3103    6.6986 H       1  LIG1        0.0618
     46 H           5.5549   -3.0979    7.8817 H       1  LIG1        0.0618
     47 H           4.9111   -5.4916    7.9976 H       1  LIG1        0.0618
     48 H           1.2342    4.4332   -1.7989 H       1  LIG1        0.0660
     49 H           2.1846    3.0435   -2.3369 H       1  LIG1        0.0660
     50 H           2.5422    3.8516   -0.7604 H       1  LIG1        0.0660
     51 H           0.9572   -0.8595   -3.4058 H       1  LIG1        0.0660
     52 H           0.3345    0.7676   -3.7113 H       1  LIG1        0.0660
     53 H          -0.5929   -0.6879   -4.2384 H       1  LIG1        0.0660
     54 H           7.2755    1.4226   -1.2230 H       1  LIG1        0.0831
     55 H           6.7122   -2.6195    0.0224 H       1  LIG1        0.0831
     56 H           8.2797   -0.8445   -0.8171 H       1  LIG1        0.0648
@<TRIPOS>BOND
     1     1     4    2
     2     1     5    2
     3     1     7    1
     4     1    16    1
     5     2    13    1
     6     2    15    1
     7     3    14    1
     8     3    31    1
     9     6    18    1
    10     6    32    1
    11     7    12    1
    12     8    12   ar
    13     8    17   ar
    14     9    14   ar
    15     9    17   ar
    16    10    22   ar
    17    10    33   ar
    18    11    22   ar
    19    11    34   ar
    20    12    13   ar
    21    13    14   ar
    22    15    18   ar
    23    15    21   ar
    24    16    19    2
    25    17    22    1
    26    18    23   ar
    27    19    20    1
    28    20    26   ar
    29    20    27   ar
    30    21    24   ar
    31    23    25   ar
    32    24    25   ar
    33    26    28   ar
    34    27    29   ar
    35    28    30   ar
    36    29    30   ar
    37    33    35   ar
    38    34    35   ar
    39     7    36    1
    40    16    37    1
    41    19    38    1
    42    21    39    1
    43    23    40    1
    44    24    41    1
    45    25    42    1
    46    26    43    1
    47    27    44    1
    48    28    45    1
    49    29    46    1
    50    30    47    1
    51    31    48    1
    52    31    49    1
    53    31    50    1
    54    32    51    1
    55    32    52    1
    56    32    53    1
    57    33    54    1
    58    34    55    1
    59    35    56    1
@<TRIPOS>MOLECULE
9957262
 56 59 0 0 0
SMALL
GASTEIGER

@<TRIPOS>ATOM
      1 S          -0.2315   -2.8792    0.7966 S.O2    1  LIG1        0.0668
      2 O          -0.9055    0.5245    0.4736 O.3     1  LIG1       -0.4435
      3 O           0.6770    2.5011   -0.8482 O.3     1  LIG1       -0.4771
      4 O           0.6962   -3.9938    0.8654 O.2     1  LIG1       -0.1505
      5 O          -0.7046   -2.3938   -0.4838 O.2     1  LIG1       -0.1505
      6 O          -2.9751    2.4375    0.9868 O.3     1  LIG1       -0.4914
      7 N           0.5319   -1.6245    1.6379 N.pl3   1  LIG1       -0.1968
      8 N           2.4533   -0.8429    0.7062 N.ar    1  LIG1       -0.2044
      9 N           2.5769    1.1726   -0.5488 N.ar    1  LIG1       -0.1867
     10 N           5.3446    0.8686   -0.7159 N.ar    1  LIG1       -0.2331
     11 N           5.1107   -1.3752    0.0656 N.ar    1  LIG1       -0.2331
     12 C           1.1378   -0.6388    0.8136 C.ar    1  LIG1        0.1883
     13 C           0.4375    0.4131    0.2492 C.ar    1  LIG1        0.2307
     14 C           1.2464    1.3307   -0.3932 C.ar    1  LIG1        0.2639
     15 C          -1.7154    0.9760   -0.5459 C.ar    1  LIG1        0.1702
     16 C          -1.6116   -3.2451    1.7839 C.2     1  LIG1        0.0729
     17 C           3.1404    0.0694   -0.0129 C.ar    1  LIG1        0.2027
     18 C          -2.7149    1.9137   -0.2538 C.ar    1  LIG1        0.1621
     19 C          -2.1390   -4.4801    1.7333 C.2     1  LIG1       -0.0353
     20 C          -3.2958   -4.9538    2.5101 C.ar    1  LIG1       -0.0237
     21 C          -1.5834    0.4940   -1.8569 C.ar    1  LIG1       -0.0157
     22 C           4.6012   -0.1536   -0.2257 C.ar    1  LIG1        0.1978
     23 C          -3.4940    2.4408   -1.2888 C.ar    1  LIG1       -0.0163
     24 C          -2.3848    1.0059   -2.8796 C.ar    1  LIG1       -0.0581
     25 C          -3.3289    1.9885   -2.5988 C.ar    1  LIG1       -0.0581
     26 C          -3.7530   -4.3208    3.6733 C.ar    1  LIG1       -0.0546
     27 C          -3.9403   -6.1286    2.0933 C.ar    1  LIG1       -0.0546
     28 C          -4.8375   -4.8393    4.3904 C.ar    1  LIG1       -0.0612
     29 C          -5.0213   -6.6470    2.8104 C.ar    1  LIG1       -0.0612
     30 C          -5.4709   -6.0014    3.9577 C.ar    1  LIG1       -0.0617
     31 C           1.5846    3.3685   -1.5216 C.3     1  LIG1        0.0805
     32 C          -3.0594    1.4660    2.0259 C.3     1  LIG1        0.0790
     33 C           6.6520    0.6268   -0.9183 C.ar    1  LIG1        0.0315
     34 C           6.4218   -1.5606   -0.1672 C.ar    1  LIG1        0.0315
     35 C           7.2497   -0.5834   -0.6643 C.ar    1  LIG1       -0.0254
     36 H           1.2967   -2.0683    2.1575 H       1  LIG1        0.1753
     37 H          -1.9998   -2.4456    2.3911 H       1  LIG1        0.0838
     38 H          -1.6910   -5.2211    1.0684 H       1  LIG1        0.0637
     39 H          -0.8553   -0.2756   -2.0964 H       1  LIG1        0.0655
     40 H          -4.2396    3.1996   -1.0693 H       1  LIG1        0.0655
     41 H          -2.2633    0.6391   -3.8962 H       1  LIG1        0.0619
     42 H          -3.9444    2.3983   -3.3959 H       1  LIG1        0.0619
     43 H          -3.2719   -3.4238    4.0538 H       1  LIG1        0.0623
     44 H          -3.6076   -6.6548    1.2016 H       1  LIG1        0.0623
     45 H          -5.1811   -4.3379    5.2910 H       1  LIG1        0.0618
     46 H          -5.5090   -7.5582    2.4720 H       1  LIG1        0.0618
     47 H          -6.3098   -6.4060    4.5182 H       1  LIG1        0.0618
     48 H           1.0184    4.2382   -1.8675 H       1  LIG1        0.0660
     49 H           2.0196    2.8831   -2.4020 H       1  LIG1        0.0660
     50 H           2.3652    3.7278   -0.8426 H       1  LIG1        0.0660
     51 H          -3.7648    1.8398    2.7744 H       1  LIG1        0.0660
     52 H          -2.0879    1.3530    2.5160 H       1  LIG1        0.0660
     53 H          -3.4332    0.4975    1.6735 H       1  LIG1        0.0660
     54 H           7.2225    1.4653   -1.3090 H       1  LIG1        0.0831
     55 H           6.7979   -2.5537    0.0623 H       1  LIG1        0.0831
     56 H           8.3016   -0.7548   -0.8412 H       1  LIG1        0.0648
@<TRIPOS>BOND
     1     1     4    2
     2     1     5    2
     3     1     7    1
     4     1    16    1
     5     2    13    1
     6     2    15    1
     7     3    14    1
     8     3    31    1
     9     6    18    1
    10     6    32    1
    11     7    12    1
    12     8    12   ar
    13     8    17   ar
    14     9    14   ar
    15     9    17   ar
    16    10    22   ar
    17    10    33   ar
    18    11    22   ar
    19    11    34   ar
    20    12    13   ar
    21    13    14   ar
    22    15    18   ar
    23    15    21   ar
    24    16    19    2
    25    17    22    1
    26    18    23   ar
    27    19    20    1
    28    20    26   ar
    29    20    27   ar
    30    21    24   ar
    31    23    25   ar
    32    24    25   ar
    33    26    28   ar
    34    27    29   ar
    35    28    30   ar
    36    29    30   ar
    37    33    35   ar
    38    34    35   ar
    39     7    36    1
    40    16    37    1
    41    19    38    1
    42    21    39    1
    43    23    40    1
    44    24    41    1
    45    25    42    1
    46    26    43    1
    47    27    44    1
    48    28    45    1
    49    29    46    1
    50    30    47    1
    51    31    48    1
    52    31    49    1
    53    31    50    1
    54    32    51    1
    55    32    52    1
    56    32    53    1
    57    33    54    1
    58    34    55    1
    59    35    56    1
@<TRIPOS>MOLECULE
9957262
 56 59 0 0 0
SMALL
GASTEIGER

@<TRIPOS>ATOM
      1 S           0.3320   -1.0471    3.1943 S.O2    1  LIG1        0.0668
      2 O          -0.8753    0.6608    0.4574 O.3     1  LIG1       -0.4435
      3 O           0.7336    2.6237   -0.8652 O.3     1  LIG1       -0.4771
      4 O           0.3102    0.3987    3.2745 O.2     1  LIG1       -0.1505
      5 O           1.3220   -1.8081    3.9287 O.2     1  LIG1       -0.1505
      6 O          -3.0454    2.6177    0.8941 O.3     1  LIG1       -0.4914
      7 N           0.5185   -1.5282    1.5723 N.pl3   1  LIG1       -0.1968
      8 N           2.4459   -0.8027    0.5982 N.ar    1  LIG1       -0.2044
      9 N           2.6054    1.2376   -0.6184 N.ar    1  LIG1       -0.1867
     10 N           5.1919    0.4362   -1.4003 N.ar    1  LIG1       -0.2331
     11 N           5.2495   -0.9375    0.5538 N.ar    1  LIG1       -0.2331
     12 C           1.1439   -0.5416    0.7600 C.ar    1  LIG1        0.1883
     13 C           0.4703    0.5437    0.2382 C.ar    1  LIG1        0.2307
     14 C           1.2875    1.4414   -0.4166 C.ar    1  LIG1        0.2639
     15 C          -1.6828    1.1106   -0.5636 C.ar    1  LIG1        0.1702
     16 C          -1.2358   -1.6174    3.6603 C.2     1  LIG1        0.0729
     17 C           3.1470    0.1110   -0.1048 C.ar    1  LIG1        0.2027
     18 C          -2.7067    2.0315   -0.2960 C.ar    1  LIG1        0.1621
     19 C          -1.5657   -2.9028    3.4651 C.2     1  LIG1       -0.0353
     20 C          -2.8616   -3.4512    3.8739 C.ar    1  LIG1       -0.0237
     21 C          -1.5408    0.5851   -1.8613 C.ar    1  LIG1       -0.0157
     22 C           4.5992   -0.1378   -0.3253 C.ar    1  LIG1        0.1978
     23 C          -3.5379    2.4415   -1.3493 C.ar    1  LIG1       -0.0163
     24 C          -2.3676    1.0165   -2.8990 C.ar    1  LIG1       -0.0581
     25 C          -3.3651    1.9498   -2.6436 C.ar    1  LIG1       -0.0581
     26 C          -3.3599   -3.2637    5.1698 C.ar    1  LIG1       -0.0546
     27 C          -3.5950   -4.2257    2.9679 C.ar    1  LIG1       -0.0546
     28 C          -4.5818   -3.8261    5.5460 C.ar    1  LIG1       -0.0612
     29 C          -4.8185   -4.7852    3.3444 C.ar    1  LIG1       -0.0612
     30 C          -5.3115   -4.5844    4.6325 C.ar    1  LIG1       -0.0617
     31 C           1.6571    3.4857   -1.5206 C.3     1  LIG1        0.0805
     32 C          -2.1871    2.4451    2.0116 C.3     1  LIG1        0.0790
     33 C           6.5017    0.1828   -1.5758 C.ar    1  LIG1        0.0315
     34 C           6.5606   -1.1412    0.3345 C.ar    1  LIG1        0.0315
     35 C           7.2443   -0.6033   -0.7284 C.ar    1  LIG1       -0.0254
     36 H           1.1519   -2.3307    1.5950 H       1  LIG1        0.1753
     37 H          -1.8951   -0.8961    4.1213 H       1  LIG1        0.0838
     38 H          -0.8825   -3.6011    2.9882 H       1  LIG1        0.0637
     39 H          -0.7836   -0.1632   -2.0785 H       1  LIG1        0.0655
     40 H          -4.3308    3.1605   -1.1536 H       1  LIG1        0.0655
     41 H          -2.2349    0.6213   -3.9027 H       1  LIG1        0.0619
     42 H          -4.0154    2.2909   -3.4448 H       1  LIG1        0.0619
     43 H          -2.7972   -2.6915    5.9038 H       1  LIG1        0.0623
     44 H          -3.2260   -4.3933    1.9586 H       1  LIG1        0.0623
     45 H          -4.9602   -3.6772    6.5541 H       1  LIG1        0.0618
     46 H          -5.3859   -5.3791    2.6324 H       1  LIG1        0.0618
     47 H          -6.2619   -5.0227    4.9261 H       1  LIG1        0.0618
     48 H           1.1094    4.3767   -1.8423 H       1  LIG1        0.0660
     49 H           2.0768    3.0123   -2.4149 H       1  LIG1        0.0660
     50 H           2.4491    3.8101   -0.8370 H       1  LIG1        0.0660
     51 H          -2.5680    3.0765    2.8205 H       1  LIG1        0.0660
     52 H          -1.1687    2.7793    1.7917 H       1  LIG1        0.0660
     53 H          -2.2167    1.4120    2.3698 H       1  LIG1        0.0660
     54 H           6.9507    0.6483   -2.4486 H       1  LIG1        0.0831
     55 H           7.0598   -1.7718    1.0647 H       1  LIG1        0.0831
     56 H           8.2976   -0.7865   -0.8873 H       1  LIG1        0.0648
@<TRIPOS>BOND
     1     1     4    2
     2     1     5    2
     3     1     7    1
     4     1    16    1
     5     2    13    1
     6     2    15    1
     7     3    14    1
     8     3    31    1
     9     6    18    1
    10     6    32    1
    11     7    12    1
    12     8    12   ar
    13     8    17   ar
    14     9    14   ar
    15     9    17   ar
    16    10    22   ar
    17    10    33   ar
    18    11    22   ar
    19    11    34   ar
    20    12    13   ar
    21    13    14   ar
    22    15    18   ar
    23    15    21   ar
    24    16    19    2
    25    17    22    1
    26    18    23   ar
    27    19    20    1
    28    20    26   ar
    29    20    27   ar
    30    21    24   ar
    31    23    25   ar
    32    24    25   ar
    33    26    28   ar
    34    27    29   ar
    35    28    30   ar
    36    29    30   ar
    37    33    35   ar
    38    34    35   ar
    39     7    36    1
    40    16    37    1
    41    19    38    1
    42    21    39    1
    43    23    40    1
    44    24    41    1
    45    25    42    1
    46    26    43    1
    47    27    44    1
    48    28    45    1
    49    29    46    1
    50    30    47    1
    51    31    48    1
    52    31    49    1
    53    31    50    1
    54    32    51    1
    55    32    52    1
    56    32    53    1
    57    33    54    1
    58    34    55    1
    59    35    56    1
@<TRIPOS>MOLECULE
9957262
 56 59 0 0 0
SMALL
GASTEIGER

@<TRIPOS>ATOM
      1 S          -0.1460   -2.8339    0.9330 S.O2    1  LIG1        0.0668
      2 O          -0.9102    0.6610    0.5241 O.3     1  LIG1       -0.4435
      3 O           0.7189    2.5374   -0.8967 O.3     1  LIG1       -0.4771
      4 O           0.5609   -2.9768   -0.3214 O.2     1  LIG1       -0.1505
      5 O          -1.5911   -2.7099    0.9431 O.2     1  LIG1       -0.1505
      6 O          -3.0573    2.6531    0.8835 O.3     1  LIG1       -0.4914
      7 N           0.3857   -1.4465    1.7494 N.pl3   1  LIG1       -0.1968
      8 N           2.4022   -0.7862    0.8139 N.ar    1  LIG1       -0.2044
      9 N           2.5762    1.1536   -0.5584 N.ar    1  LIG1       -0.1867
     10 N           5.1402    0.3299   -1.2903 N.ar    1  LIG1       -0.2331
     11 N           5.2203   -0.9755    0.7094 N.ar    1  LIG1       -0.2331
     12 C           1.0930   -0.5250    0.9229 C.ar    1  LIG1        0.1883
     13 C           0.4327    0.5162    0.3017 C.ar    1  LIG1        0.2307
     14 C           1.2586    1.3705   -0.3955 C.ar    1  LIG1        0.2639
     15 C          -1.7171    1.0711   -0.5137 C.ar    1  LIG1        0.1702
     16 C           0.2846   -4.1256    2.0005 C.2     1  LIG1        0.0729
     17 C           3.1076    0.0580    0.0322 C.ar    1  LIG1        0.2027
     18 C          -2.7283    2.0161   -0.2830 C.ar    1  LIG1        0.1621
     19 C           0.0672   -5.3923    1.6148 C.2     1  LIG1       -0.0353
     20 C           0.3110   -6.5114    2.5241 C.ar    1  LIG1       -0.0237
     21 C          -1.5867    0.4863   -1.7865 C.ar    1  LIG1       -0.0157
     22 C           4.5569   -0.2128   -0.1922 C.ar    1  LIG1        0.1978
     23 C          -3.5559    2.3935   -1.3505 C.ar    1  LIG1       -0.0163
     24 C          -2.4086    0.8876   -2.8401 C.ar    1  LIG1       -0.0581
     25 C          -3.3913    1.8465   -2.6233 C.ar    1  LIG1       -0.0581
     26 C           1.5940   -6.7992    3.0038 C.ar    1  LIG1       -0.0546
     27 C          -0.7673   -7.3063    2.9296 C.ar    1  LIG1       -0.0546
     28 C           1.7920   -7.8629    3.8875 C.ar    1  LIG1       -0.0612
     29 C          -0.5682   -8.3662    3.8165 C.ar    1  LIG1       -0.0612
     30 C           0.7110   -8.6432    4.2959 C.ar    1  LIG1       -0.0617
     31 C           1.6472    3.3430   -1.6147 C.3     1  LIG1        0.0805
     32 C          -2.1907    2.5339    1.9995 C.3     1  LIG1        0.0790
     33 C           6.4459    0.0690   -1.4783 C.ar    1  LIG1        0.0315
     34 C           6.5274   -1.1923    0.4726 C.ar    1  LIG1        0.0315
     35 C           7.1977   -0.6921   -0.6174 C.ar    1  LIG1       -0.0254
     36 H          -0.4608   -1.0144    2.1257 H       1  LIG1        0.1753
     37 H           0.6608   -3.8626    2.9772 H       1  LIG1        0.0838
     38 H          -0.3464   -5.6338    0.6387 H       1  LIG1        0.0637
     39 H          -0.8455   -0.2877   -1.9727 H       1  LIG1        0.0655
     40 H          -4.3400    3.1292   -1.1840 H       1  LIG1        0.0655
     41 H          -2.2856    0.4453   -3.8254 H       1  LIG1        0.0619
     42 H          -4.0384    2.1618   -3.4374 H       1  LIG1        0.0619
     43 H           2.4478   -6.2023    2.6911 H       1  LIG1        0.0623
     44 H          -1.7722   -7.0973    2.5690 H       1  LIG1        0.0623
     45 H           2.7903   -8.0827    4.2574 H       1  LIG1        0.0618
     46 H          -1.4122   -8.9728    4.1346 H       1  LIG1        0.0618
     47 H           0.8652   -9.4682    4.9867 H       1  LIG1        0.0618
     48 H           1.1084    4.2203   -1.9853 H       1  LIG1        0.0660
     49 H           2.0517    2.8088   -2.4812 H       1  LIG1        0.0660
     50 H           2.4502    3.6985   -0.9597 H       1  LIG1        0.0660
     51 H          -2.5663    3.1993    2.7832 H       1  LIG1        0.0660
     52 H          -1.1753    2.8609    1.7549 H       1  LIG1        0.0660
     53 H          -2.2073    1.5177    2.4056 H       1  LIG1        0.0660
     54 H           6.8817    0.5060   -2.3720 H       1  LIG1        0.0831
     55 H           7.0369   -1.8024    1.2131 H       1  LIG1        0.0831
     56 H           8.2477   -0.8851   -0.7874 H       1  LIG1        0.0648
@<TRIPOS>BOND
     1     1     4    2
     2     1     5    2
     3     1     7    1
     4     1    16    1
     5     2    13    1
     6     2    15    1
     7     3    14    1
     8     3    31    1
     9     6    18    1
    10     6    32    1
    11     7    12    1
    12     8    12   ar
    13     8    17   ar
    14     9    14   ar
    15     9    17   ar
    16    10    22   ar
    17    10    33   ar
    18    11    22   ar
    19    11    34   ar
    20    12    13   ar
    21    13    14   ar
    22    15    18   ar
    23    15    21   ar
    24    16    19    2
    25    17    22    1
    26    18    23   ar
    27    19    20    1
    28    20    26   ar
    29    20    27   ar
    30    21    24   ar
    31    23    25   ar
    32    24    25   ar
    33    26    28   ar
    34    27    29   ar
    35    28    30   ar
    36    29    30   ar
    37    33    35   ar
    38    34    35   ar
    39     7    36    1
    40    16    37    1
    41    19    38    1
    42    21    39    1
    43    23    40    1
    44    24    41    1
    45    25    42    1
    46    26    43    1
    47    27    44    1
    48    28    45    1
    49    29    46    1
    50    30    47    1
    51    31    48    1
    52    31    49    1
    53    31    50    1
    54    32    51    1
    55    32    52    1
    56    32    53    1
    57    33    54    1
    58    34    55    1
    59    35    56    1
@<TRIPOS>MOLECULE
9957262
 56 59 0 0 0
SMALL
GASTEIGER

@<TRIPOS>ATOM
      1 S          -0.2407   -2.8304    0.7983 S.O2    1  LIG1        0.0668
      2 O          -0.8903    0.4703    0.5045 O.3     1  LIG1       -0.4435
      3 O           0.6601    2.5157   -0.7643 O.3     1  LIG1       -0.4771
      4 O           0.1761   -4.0897    1.3828 O.2     1  LIG1       -0.1505
      5 O          -0.0689   -2.5862   -0.6175 O.2     1  LIG1       -0.1505
      6 O          -3.0772    2.4063    0.9411 O.3     1  LIG1       -0.4914
      7 N           0.6205   -1.6608    1.6685 N.pl3   1  LIG1       -0.1968
      8 N           2.5099   -0.7837    0.7911 N.ar    1  LIG1       -0.2044
      9 N           2.5920    1.2353   -0.4557 N.ar    1  LIG1       -0.1867
     10 N           5.3693    0.9465   -0.6614 N.ar    1  LIG1       -0.2331
     11 N           5.1412   -1.3072    0.0954 N.ar    1  LIG1       -0.2331
     12 C           1.1845   -0.6202    0.8815 C.ar    1  LIG1        0.1883
     13 C           0.4643    0.4111    0.3148 C.ar    1  LIG1        0.2307
     14 C           1.2562    1.3552   -0.3117 C.ar    1  LIG1        0.2639
     15 C          -1.6850    0.9360   -0.5214 C.ar    1  LIG1        0.1702
     16 C          -1.8985   -2.5815    1.2462 C.2     1  LIG1        0.0729
     17 C           3.1782    0.1408    0.0736 C.ar    1  LIG1        0.2027
     18 C          -2.7163    1.8497   -0.2566 C.ar    1  LIG1        0.1621
     19 C          -2.8616   -2.8830    0.3611 C.2     1  LIG1       -0.0353
     20 C          -4.3089   -2.8114    0.6151 C.ar    1  LIG1       -0.0237
     21 C          -1.5201    0.4333   -1.8248 C.ar    1  LIG1       -0.0157
     22 C           4.6340   -0.0776   -0.1663 C.ar    1  LIG1        0.1978
     23 C          -3.5331    2.2747   -1.3149 C.ar    1  LIG1       -0.0163
     24 C          -2.3294    0.8830   -2.8690 C.ar    1  LIG1       -0.0581
     25 C          -3.3342    1.8093   -2.6149 C.ar    1  LIG1       -0.0581
     26 C          -4.8654   -2.8068    1.9015 C.ar    1  LIG1       -0.0546
     27 C          -5.1774   -2.8232   -0.4863 C.ar    1  LIG1       -0.0546
     28 C          -6.2527   -2.8016    2.0802 C.ar    1  LIG1       -0.0612
     29 C          -6.5635   -2.8224   -0.3082 C.ar    1  LIG1       -0.0612
     30 C          -7.1007   -2.8113    0.9757 C.ar    1  LIG1       -0.0617
     31 C           1.5379    3.3772   -1.4818 C.3     1  LIG1        0.0805
     32 C          -2.1504    2.3596    2.0138 C.3     1  LIG1        0.0790
     33 C           6.6696    0.6967   -0.9023 C.ar    1  LIG1        0.0315
     34 C           6.4441   -1.4997   -0.1754 C.ar    1  LIG1        0.0315
     35 C           7.2648   -0.5217   -0.6805 C.ar    1  LIG1       -0.0254
     36 H           1.3915   -2.1513    2.1266 H       1  LIG1        0.1753
     37 H          -2.0830   -2.2376    2.2513 H       1  LIG1        0.0838
     38 H          -2.5838   -3.2222   -0.6370 H       1  LIG1        0.0637
     39 H          -0.7589   -0.3126   -2.0414 H       1  LIG1        0.0655
     40 H          -4.3326    2.9865   -1.1200 H       1  LIG1        0.0655
     41 H          -2.1772    0.5054   -3.8768 H       1  LIG1        0.0619
     42 H          -3.9701    2.1640   -3.4217 H       1  LIG1        0.0619
     43 H          -4.2373   -2.8240    2.7875 H       1  LIG1        0.0623
     44 H          -4.7832   -2.8364   -1.5004 H       1  LIG1        0.0623
     45 H          -6.6700   -2.8003    3.0841 H       1  LIG1        0.0618
     46 H          -7.2208   -2.8357   -1.1737 H       1  LIG1        0.0618
     47 H          -8.1784   -2.8156    1.1155 H       1  LIG1        0.0618
     48 H           0.9491    4.2254   -1.8443 H       1  LIG1        0.0660
     49 H           1.9675    2.8736   -2.3548 H       1  LIG1        0.0660
     50 H           2.3232    3.7719   -0.8280 H       1  LIG1        0.0660
     51 H          -2.5261    3.0183    2.8031 H       1  LIG1        0.0660
     52 H          -1.1674    2.7374    1.7159 H       1  LIG1        0.0660
     53 H          -2.0912    1.3521    2.4362 H       1  LIG1        0.0660
     54 H           7.2367    1.5349   -1.2968 H       1  LIG1        0.0831
     55 H           6.8170   -2.4991    0.0300 H       1  LIG1        0.0831
     56 H           8.3099   -0.6999   -0.8907 H       1  LIG1        0.0648
@<TRIPOS>BOND
     1     1     4    2
     2     1     5    2
     3     1     7    1
     4     1    16    1
     5     2    13    1
     6     2    15    1
     7     3    14    1
     8     3    31    1
     9     6    18    1
    10     6    32    1
    11     7    12    1
    12     8    12   ar
    13     8    17   ar
    14     9    14   ar
    15     9    17   ar
    16    10    22   ar
    17    10    33   ar
    18    11    22   ar
    19    11    34   ar
    20    12    13   ar
    21    13    14   ar
    22    15    18   ar
    23    15    21   ar
    24    16    19    2
    25    17    22    1
    26    18    23   ar
    27    19    20    1
    28    20    26   ar
    29    20    27   ar
    30    21    24   ar
    31    23    25   ar
    32    24    25   ar
    33    26    28   ar
    34    27    29   ar
    35    28    30   ar
    36    29    30   ar
    37    33    35   ar
    38    34    35   ar
    39     7    36    1
    40    16    37    1
    41    19    38    1
    42    21    39    1
    43    23    40    1
    44    24    41    1
    45    25    42    1
    46    26    43    1
    47    27    44    1
    48    28    45    1
    49    29    46    1
    50    30    47    1
    51    31    48    1
    52    31    49    1
    53    31    50    1
    54    32    51    1
    55    32    52    1
    56    32    53    1
    57    33    54    1
    58    34    55    1
    59    35    56    1
@<TRIPOS>MOLECULE
9957262
 56 59 0 0 0
SMALL
GASTEIGER

@<TRIPOS>ATOM
      1 S           0.3735   -1.1111    3.2254 S.O2    1  LIG1        0.0668
      2 O          -0.8639    0.7022    0.5572 O.3     1  LIG1       -0.4435
      3 O           0.7377    2.6600   -0.7382 O.3     1  LIG1       -0.4771
      4 O           1.0809    0.1324    3.4556 O.2     1  LIG1       -0.1505
      5 O           0.7279   -2.3019    3.9713 O.2     1  LIG1       -0.1505
      6 O          -3.0976    2.5554    0.9461 O.3     1  LIG1       -0.4914
      7 N           0.5506   -1.5599    1.5960 N.pl3   1  LIG1       -0.1968
      8 N           2.4364   -0.8307    0.5712 N.ar    1  LIG1       -0.2044
      9 N           2.5998    1.2477   -0.5761 N.ar    1  LIG1       -0.1867
     10 N           5.1746    0.4426   -1.4133 N.ar    1  LIG1       -0.2331
     11 N           5.2396   -0.9668    0.5155 N.ar    1  LIG1       -0.2331
     12 C           1.1427   -0.5578    0.7818 C.ar    1  LIG1        0.1883
     13 C           0.4755    0.5554    0.3177 C.ar    1  LIG1        0.2307
     14 C           1.2901    1.4591   -0.3363 C.ar    1  LIG1        0.2639
     15 C          -1.6753    1.0994   -0.4871 C.ar    1  LIG1        0.1702
     16 C          -1.3120   -0.8093    3.4773 C.2     1  LIG1        0.0729
     17 C           3.1369    0.0994   -0.1096 C.ar    1  LIG1        0.2027
     18 C          -2.7344    1.9875   -0.2461 C.ar    1  LIG1        0.1621
     19 C          -2.2219   -1.7145    3.0899 C.2     1  LIG1       -0.0353
     20 C          -3.6751   -1.5848    3.2865 C.ar    1  LIG1       -0.0237
     21 C          -1.5068    0.5617   -1.7765 C.ar    1  LIG1       -0.0157
     22 C           4.5862   -0.1511   -0.3469 C.ar    1  LIG1        0.1978
     23 C          -3.5831    2.3431   -1.3039 C.ar    1  LIG1       -0.0163
     24 C          -2.3429    0.9484   -2.8256 C.ar    1  LIG1       -0.0581
     25 C          -3.3803    1.8432   -2.5900 C.ar    1  LIG1       -0.0581
     26 C          -4.2518   -0.6943    4.2037 C.ar    1  LIG1       -0.0546
     27 C          -4.5239   -2.4296    2.5568 C.ar    1  LIG1       -0.0546
     28 C          -5.6390   -0.6384    4.3727 C.ar    1  LIG1       -0.0612
     29 C          -5.9109   -2.3761    2.7269 C.ar    1  LIG1       -0.0612
     30 C          -6.4673   -1.4785    3.6344 C.ar    1  LIG1       -0.0617
     31 C           1.6326    3.4912   -1.4694 C.3     1  LIG1        0.0805
     32 C          -2.0634    2.8080    1.8852 C.3     1  LIG1        0.0790
     33 C           6.4839    0.1924   -1.5971 C.ar    1  LIG1        0.0315
     34 C           6.5500   -1.1661    0.2888 C.ar    1  LIG1        0.0315
     35 C           7.2299   -0.6082   -0.7660 C.ar    1  LIG1       -0.0254
     36 H           1.1724   -2.3712    1.5935 H       1  LIG1        0.1753
     37 H          -1.5517    0.1129    3.9814 H       1  LIG1        0.0838
     38 H          -1.8951   -2.6259    2.5916 H       1  LIG1        0.0637
     39 H          -0.7247   -0.1638   -1.9826 H       1  LIG1        0.0655
     40 H          -4.4079    3.0284   -1.1205 H       1  LIG1        0.0655
     41 H          -2.1887    0.5445   -3.8231 H       1  LIG1        0.0619
     42 H          -4.0386    2.1455   -3.4003 H       1  LIG1        0.0619
     43 H          -3.6399   -0.0360    4.8126 H       1  LIG1        0.0623
     44 H          -4.1163   -3.1414    1.8412 H       1  LIG1        0.0623
     45 H          -6.0698    0.0599    5.0860 H       1  LIG1        0.0618
     46 H          -6.5542   -3.0377    2.1518 H       1  LIG1        0.0618
     47 H          -7.5448   -1.4370    3.7687 H       1  LIG1        0.0618
     48 H           1.0820    4.3872   -1.7716 H       1  LIG1        0.0660
     49 H           1.9838    2.9938   -2.3802 H       1  LIG1        0.0660
     50 H           2.4736    3.8112   -0.8448 H       1  LIG1        0.0660
     51 H          -2.4376    3.5499    2.5973 H       1  LIG1        0.0660
     52 H          -1.1674    3.2237    1.4141 H       1  LIG1        0.0660
     53 H          -1.8354    1.9052    2.4543 H       1  LIG1        0.0660
     54 H           6.9300    0.6733   -2.4629 H       1  LIG1        0.0831
     55 H           7.0518   -1.8089    1.0065 H       1  LIG1        0.0831
     56 H           8.2830   -0.7872   -0.9308 H       1  LIG1        0.0648
@<TRIPOS>BOND
     1     1     4    2
     2     1     5    2
     3     1     7    1
     4     1    16    1
     5     2    13    1
     6     2    15    1
     7     3    14    1
     8     3    31    1
     9     6    18    1
    10     6    32    1
    11     7    12    1
    12     8    12   ar
    13     8    17   ar
    14     9    14   ar
    15     9    17   ar
    16    10    22   ar
    17    10    33   ar
    18    11    22   ar
    19    11    34   ar
    20    12    13   ar
    21    13    14   ar
    22    15    18   ar
    23    15    21   ar
    24    16    19    2
    25    17    22    1
    26    18    23   ar
    27    19    20    1
    28    20    26   ar
    29    20    27   ar
    30    21    24   ar
    31    23    25   ar
    32    24    25   ar
    33    26    28   ar
    34    27    29   ar
    35    28    30   ar
    36    29    30   ar
    37    33    35   ar
    38    34    35   ar
    39     7    36    1
    40    16    37    1
    41    19    38    1
    42    21    39    1
    43    23    40    1
    44    24    41    1
    45    25    42    1
    46    26    43    1
    47    27    44    1
    48    28    45    1
    49    29    46    1
    50    30    47    1
    51    31    48    1
    52    31    49    1
    53    31    50    1
    54    32    51    1
    55    32    52    1
    56    32    53    1
    57    33    54    1
    58    34    55    1
    59    35    56    1
@<TRIPOS>MOLECULE
9957262
 56 59 0 0 0
SMALL
GASTEIGER

@<TRIPOS>ATOM
      1 S          -0.1066   -2.8261    0.9636 S.O2    1  LIG1        0.0668
      2 O          -0.9260    0.6679    0.4511 O.3     1  LIG1       -0.4435
      3 O           0.7089    2.5559   -0.9600 O.3     1  LIG1       -0.4771
      4 O           0.7984   -3.1488   -0.1159 O.2     1  LIG1       -0.1505
      5 O          -1.5160   -2.6188    0.6980 O.2     1  LIG1       -0.1505
      6 O          -3.1020    2.6099    0.8714 O.3     1  LIG1       -0.4914
      7 N           0.3867   -1.3965    1.7369 N.pl3   1  LIG1       -0.1968
      8 N           2.3983   -0.7369    0.7950 N.ar    1  LIG1       -0.2044
      9 N           2.5692    1.1839   -0.6005 N.ar    1  LIG1       -0.1867
     10 N           5.1220    0.3192   -1.3446 N.ar    1  LIG1       -0.2331
     11 N           5.2265   -0.8889    0.7151 N.ar    1  LIG1       -0.2331
     12 C           1.0842   -0.4906    0.8850 C.ar    1  LIG1        0.1883
     13 C           0.4204    0.5365    0.2436 C.ar    1  LIG1        0.2307
     14 C           1.2485    1.3938   -0.4484 C.ar    1  LIG1        0.2639
     15 C          -1.7260    1.1096   -0.5790 C.ar    1  LIG1        0.1702
     16 C           0.0137   -4.0518    2.1888 C.2     1  LIG1        0.0729
     17 C           3.1033    0.0987    0.0053 C.ar    1  LIG1        0.2027
     18 C          -2.7519    2.0309   -0.3194 C.ar    1  LIG1        0.1621
     19 C           1.0728   -4.0684    3.0120 C.2     1  LIG1       -0.0353
     20 C           1.2780   -5.0261    4.1108 C.ar    1  LIG1       -0.0237
     21 C          -1.5763    0.5805   -1.8732 C.ar    1  LIG1       -0.0157
     22 C           4.5519   -0.1733   -0.2155 C.ar    1  LIG1        0.1978
     23 C          -3.5747    2.4425   -1.3780 C.ar    1  LIG1       -0.0163
     24 C          -2.3916    1.0177   -2.9187 C.ar    1  LIG1       -0.0581
     25 C          -3.3886    1.9546   -2.6716 C.ar    1  LIG1       -0.0581
     26 C           2.5782   -5.2143    4.6006 C.ar    1  LIG1       -0.0546
     27 C           0.2252   -5.7111    4.7355 C.ar    1  LIG1       -0.0546
     28 C           2.8252   -6.0814    5.6687 C.ar    1  LIG1       -0.0612
     29 C           0.4714   -6.5808    5.8032 C.ar    1  LIG1       -0.0612
     30 C           1.7710   -6.7660    6.2684 C.ar    1  LIG1       -0.0617
     31 C           1.6513    3.3899   -1.6262 C.3     1  LIG1        0.0805
     32 C          -2.2170    2.4970    1.9733 C.3     1  LIG1        0.0790
     33 C           6.4263    0.0530   -1.5335 C.ar    1  LIG1        0.0315
     34 C           6.5322   -1.1133    0.4746 C.ar    1  LIG1        0.0315
     35 C           7.1899   -0.6650   -0.6446 C.ar    1  LIG1       -0.0254
     36 H          -0.4691   -0.9661    2.0913 H       1  LIG1        0.1753
     37 H          -0.7971   -4.7634    2.2285 H       1  LIG1        0.0838
     38 H           1.8680   -3.3306    2.8823 H       1  LIG1        0.0637
     39 H          -0.8240   -0.1749   -2.0849 H       1  LIG1        0.0655
     40 H          -4.3709    3.1592   -1.1882 H       1  LIG1        0.0655
     41 H          -2.2513    0.6217   -3.9209 H       1  LIG1        0.0619
     42 H          -4.0305    2.2973   -3.4788 H       1  LIG1        0.0619
     43 H           3.4185   -4.6881    4.1512 H       1  LIG1        0.0623
     44 H          -0.8035   -5.5743    4.4142 H       1  LIG1        0.0623
     45 H           3.8398   -6.2178    6.0331 H       1  LIG1        0.0618
     46 H          -0.3536   -7.1065    6.2757 H       1  LIG1        0.0618
     47 H           1.9618   -7.4390    7.0998 H       1  LIG1        0.0618
     48 H           1.1131    4.2660   -2.0003 H       1  LIG1        0.0660
     49 H           2.0979    2.8797   -2.4859 H       1  LIG1        0.0660
     50 H           2.4221    3.7447   -0.9328 H       1  LIG1        0.0660
     51 H          -2.6001    3.1381    2.7731 H       1  LIG1        0.0660
     52 H          -1.2138    2.8545    1.7215 H       1  LIG1        0.0660
     53 H          -2.2007    1.4735    2.3624 H       1  LIG1        0.0660
     54 H           6.8512    0.4468   -2.4528 H       1  LIG1        0.0831
     55 H           7.0517   -1.6855    1.2375 H       1  LIG1        0.0831
     56 H           8.2378   -0.8631   -0.8181 H       1  LIG1        0.0648
@<TRIPOS>BOND
     1     1     4    2
     2     1     5    2
     3     1     7    1
     4     1    16    1
     5     2    13    1
     6     2    15    1
     7     3    14    1
     8     3    31    1
     9     6    18    1
    10     6    32    1
    11     7    12    1
    12     8    12   ar
    13     8    17   ar
    14     9    14   ar
    15     9    17   ar
    16    10    22   ar
    17    10    33   ar
    18    11    22   ar
    19    11    34   ar
    20    12    13   ar
    21    13    14   ar
    22    15    18   ar
    23    15    21   ar
    24    16    19    2
    25    17    22    1
    26    18    23   ar
    27    19    20    1
    28    20    26   ar
    29    20    27   ar
    30    21    24   ar
    31    23    25   ar
    32    24    25   ar
    33    26    28   ar
    34    27    29   ar
    35    28    30   ar
    36    29    30   ar
    37    33    35   ar
    38    34    35   ar
    39     7    36    1
    40    16    37    1
    41    19    38    1
    42    21    39    1
    43    23    40    1
    44    24    41    1
    45    25    42    1
    46    26    43    1
    47    27    44    1
    48    28    45    1
    49    29    46    1
    50    30    47    1
    51    31    48    1
    52    31    49    1
    53    31    50    1
    54    32    51    1
    55    32    52    1
    56    32    53    1
    57    33    54    1
    58    34    55    1
    59    35    56    1
@<TRIPOS>MOLECULE
9957262
 56 59 0 0 0
SMALL
GASTEIGER

@<TRIPOS>ATOM
      1 S          -0.2290   -2.8345    0.8240 S.O2    1  LIG1        0.0668
      2 O          -0.8904    0.6111    0.5278 O.3     1  LIG1       -0.4435
      3 O           0.7287    2.5166   -0.8545 O.3     1  LIG1       -0.4771
      4 O           0.5407   -3.0547   -0.3811 O.2     1  LIG1       -0.1505
      5 O          -1.6407   -2.5265    0.7412 O.2     1  LIG1       -0.1505
      6 O          -3.0393    2.5997    0.9098 O.3     1  LIG1       -0.4914
      7 N           0.4317   -1.5415    1.7037 N.pl3   1  LIG1       -0.1968
      8 N           2.4261   -0.8447    0.7626 N.ar    1  LIG1       -0.2044
      9 N           2.5902    1.1304   -0.5587 N.ar    1  LIG1       -0.1867
     10 N           5.1552    0.3210   -1.3204 N.ar    1  LIG1       -0.2331
     11 N           5.2496   -0.9915    0.6741 N.ar    1  LIG1       -0.2331
     12 C           1.1169   -0.5899    0.8913 C.ar    1  LIG1        0.1883
     13 C           0.4516    0.4666    0.2994 C.ar    1  LIG1        0.2307
     14 C           1.2729    1.3386   -0.3836 C.ar    1  LIG1        0.2639
     15 C          -1.6973    1.0357   -0.5058 C.ar    1  LIG1        0.1702
     16 C          -0.0614   -4.2064    1.8707 C.2     1  LIG1        0.0729
     17 C           3.1267    0.0224    0.0023 C.ar    1  LIG1        0.2027
     18 C          -2.7081    1.9786   -0.2647 C.ar    1  LIG1        0.1621
     19 C           1.1601   -4.5816    2.2834 C.2     1  LIG1       -0.0353
     20 C           1.4171   -5.7233    3.1753 C.ar    1  LIG1       -0.0237
     21 C          -1.5649    0.4695   -1.7871 C.ar    1  LIG1       -0.0157
     22 C           4.5777   -0.2332   -0.2251 C.ar    1  LIG1        0.1978
     23 C          -3.5340    2.3711   -1.3285 C.ar    1  LIG1       -0.0163
     24 C          -2.3838    0.8867   -2.8370 C.ar    1  LIG1       -0.0581
     25 C          -3.3667    1.8427   -2.6090 C.ar    1  LIG1       -0.0581
     26 C           0.5139   -6.1290    4.1682 C.ar    1  LIG1       -0.0546
     27 C           2.6408   -6.3988    3.0681 C.ar    1  LIG1       -0.0546
     28 C           0.8167   -7.2003    5.0146 C.ar    1  LIG1       -0.0612
     29 C           2.9434   -7.4697    3.9145 C.ar    1  LIG1       -0.0612
     30 C           2.0304   -7.8715    4.8858 C.ar    1  LIG1       -0.0617
     31 C           1.6447    3.3290   -1.5809 C.3     1  LIG1        0.0805
     32 C          -2.1553    2.4927    2.0131 C.3     1  LIG1        0.0790
     33 C           6.4643    0.0778   -1.5072 C.ar    1  LIG1        0.0315
     34 C           6.5599   -1.1893    0.4393 C.ar    1  LIG1        0.0315
     35 C           7.2252   -0.6762   -0.6481 C.ar    1  LIG1       -0.0254
     36 H          -0.3596   -1.0996    2.1734 H       1  LIG1        0.1753
     37 H          -0.9729   -4.7107    2.1525 H       1  LIG1        0.0838
     38 H           2.0417   -4.0417    1.9356 H       1  LIG1        0.0637
     39 H          -0.8249   -0.3030   -1.9827 H       1  LIG1        0.0655
     40 H          -4.3183    3.1043   -1.1533 H       1  LIG1        0.0655
     41 H          -2.2587    0.4583   -3.8281 H       1  LIG1        0.0619
     42 H          -4.0117    2.1699   -3.4199 H       1  LIG1        0.0619
     43 H          -0.4323   -5.6135    4.3090 H       1  LIG1        0.0623
     44 H           3.3704   -6.1017    2.3178 H       1  LIG1        0.0623
     45 H           0.1065   -7.5060    5.7787 H       1  LIG1        0.0618
     46 H           3.8940   -7.9873    3.8147 H       1  LIG1        0.0618
     47 H           2.2662   -8.7028    5.5453 H       1  LIG1        0.0618
     48 H           1.0992    4.2086   -1.9361 H       1  LIG1        0.0660
     49 H           2.0362    2.8026   -2.4582 H       1  LIG1        0.0660
     50 H           2.4574    3.6801   -0.9357 H       1  LIG1        0.0660
     51 H          -2.5258    3.1576    2.7996 H       1  LIG1        0.0660
     52 H          -1.1463    2.8277    1.7530 H       1  LIG1        0.0660
     53 H          -2.1573    1.4781    2.4230 H       1  LIG1        0.0660
     54 H           6.8958    0.5233   -2.3991 H       1  LIG1        0.0831
     55 H           7.0763   -1.7943    1.1789 H       1  LIG1        0.0831
     56 H           8.2778   -0.8541   -0.8169 H       1  LIG1        0.0648
@<TRIPOS>BOND
     1     1     4    2
     2     1     5    2
     3     1     7    1
     4     1    16    1
     5     2    13    1
     6     2    15    1
     7     3    14    1
     8     3    31    1
     9     6    18    1
    10     6    32    1
    11     7    12    1
    12     8    12   ar
    13     8    17   ar
    14     9    14   ar
    15     9    17   ar
    16    10    22   ar
    17    10    33   ar
    18    11    22   ar
    19    11    34   ar
    20    12    13   ar
    21    13    14   ar
    22    15    18   ar
    23    15    21   ar
    24    16    19    2
    25    17    22    1
    26    18    23   ar
    27    19    20    1
    28    20    26   ar
    29    20    27   ar
    30    21    24   ar
    31    23    25   ar
    32    24    25   ar
    33    26    28   ar
    34    27    29   ar
    35    28    30   ar
    36    29    30   ar
    37    33    35   ar
    38    34    35   ar
    39     7    36    1
    40    16    37    1
    41    19    38    1
    42    21    39    1
    43    23    40    1
    44    24    41    1
    45    25    42    1
    46    26    43    1
    47    27    44    1
    48    28    45    1
    49    29    46    1
    50    30    47    1
    51    31    48    1
    52    31    49    1
    53    31    50    1
    54    32    51    1
    55    32    52    1
    56    32    53    1
    57    33    54    1
    58    34    55    1
    59    35    56    1
@<TRIPOS>MOLECULE
9957262
 56 59 0 0 0
SMALL
GASTEIGER

@<TRIPOS>ATOM
      1 S          -0.2425   -2.8459    0.8540 S.O2    1  LIG1        0.0668
      2 O          -0.9059    0.5869    0.5247 O.3     1  LIG1       -0.4435
      3 O           0.7158    2.4986   -0.8512 O.3     1  LIG1       -0.4771
      4 O           0.4768   -3.0300   -0.3882 O.2     1  LIG1       -0.1505
      5 O          -1.6658   -2.5707    0.8373 O.2     1  LIG1       -0.1505
      6 O          -3.0582    2.5662    0.9184 O.3     1  LIG1       -0.4914
      7 N           0.4197   -1.5467    1.7229 N.pl3   1  LIG1       -0.1968
      8 N           2.4160   -0.8532    0.7831 N.ar    1  LIG1       -0.2044
      9 N           2.5787    1.1172   -0.5455 N.ar    1  LIG1       -0.1867
     10 N           5.1394    0.2989   -1.3114 N.ar    1  LIG1       -0.2331
     11 N           5.2432   -0.9859    0.7008 N.ar    1  LIG1       -0.2331
     12 C           1.1054   -0.6007    0.9047 C.ar    1  LIG1        0.1883
     13 C           0.4386    0.4497    0.3049 C.ar    1  LIG1        0.2307
     14 C           1.2603    1.3226   -0.3762 C.ar    1  LIG1        0.2639
     15 C          -1.7071    1.0221   -0.5086 C.ar    1  LIG1        0.1702
     16 C           0.0031   -4.2216    1.8774 C.2     1  LIG1        0.0729
     17 C           3.1159    0.0121    0.0201 C.ar    1  LIG1        0.2027
     18 C          -2.7200    1.9614   -0.2625 C.ar    1  LIG1        0.1621
     19 C           1.2482   -4.5861    2.2174 C.2     1  LIG1       -0.0353
     20 C           1.4920   -5.7073    3.1277 C.ar    1  LIG1       -0.0237
     21 C          -1.5669    0.4710   -1.7956 C.ar    1  LIG1       -0.0157
     22 C           4.5670   -0.2422   -0.2068 C.ar    1  LIG1        0.1978
     23 C          -3.5408    2.3651   -1.3259 C.ar    1  LIG1       -0.0163
     24 C          -2.3793    0.9009   -2.8456 C.ar    1  LIG1       -0.0581
     25 C          -3.3646    1.8532   -2.6117 C.ar    1  LIG1       -0.0581
     26 C           2.1609   -5.4753    4.3348 C.ar    1  LIG1       -0.0546
     27 C           1.0729   -7.0069    2.8171 C.ar    1  LIG1       -0.0546
     28 C           2.3893   -6.5240    5.2290 C.ar    1  LIG1       -0.0612
     29 C           1.3068   -8.0559    3.7101 C.ar    1  LIG1       -0.0612
     30 C           1.9609   -7.8132    4.9170 C.ar    1  LIG1       -0.0617
     31 C           1.6349    3.3158   -1.5682 C.3     1  LIG1        0.0805
     32 C          -2.1604    2.4765    2.0123 C.3     1  LIG1        0.0790
     33 C           6.4486    0.0565   -1.4993 C.ar    1  LIG1        0.0315
     34 C           6.5532   -1.1844    0.4637 C.ar    1  LIG1        0.0315
     35 C           7.2138   -0.6843   -0.6327 C.ar    1  LIG1       -0.0254
     36 H          -0.3725   -1.1059    2.1910 H       1  LIG1        0.1753
     37 H          -0.8815   -4.7293    2.2346 H       1  LIG1        0.0838
     38 H           2.1224   -4.0411    1.8650 H       1  LIG1        0.0637
     39 H          -0.8247   -0.2984   -1.9959 H       1  LIG1        0.0655
     40 H          -4.3273    3.0949   -1.1460 H       1  LIG1        0.0655
     41 H          -2.2471    0.4857   -3.8414 H       1  LIG1        0.0619
     42 H          -4.0047    2.1901   -3.4227 H       1  LIG1        0.0619
     43 H           2.4989   -4.4741    4.5934 H       1  LIG1        0.0623
     44 H           0.5685   -7.2154    1.8764 H       1  LIG1        0.0623
     45 H           2.9002   -6.3336    6.1693 H       1  LIG1        0.0618
     46 H           0.9798   -9.0627    3.4627 H       1  LIG1        0.0618
     47 H           2.1396   -8.6290    5.6131 H       1  LIG1        0.0618
     48 H           1.0891    4.1941   -1.9262 H       1  LIG1        0.0660
     49 H           2.0358    2.7927   -2.4431 H       1  LIG1        0.0660
     50 H           2.4407    3.6686   -0.9153 H       1  LIG1        0.0660
     51 H          -2.5294    3.1424    2.7985 H       1  LIG1        0.0660
     52 H          -1.1579    2.8202    1.7391 H       1  LIG1        0.0660
     53 H          -2.1471    1.4646    2.4285 H       1  LIG1        0.0660
     54 H           6.8762    0.4912   -2.3983 H       1  LIG1        0.0831
     55 H           7.0733   -1.7792    1.2089 H       1  LIG1        0.0831
     56 H           8.2662   -0.8625   -0.8026 H       1  LIG1        0.0648
@<TRIPOS>BOND
     1     1     4    2
     2     1     5    2
     3     1     7    1
     4     1    16    1
     5     2    13    1
     6     2    15    1
     7     3    14    1
     8     3    31    1
     9     6    18    1
    10     6    32    1
    11     7    12    1
    12     8    12   ar
    13     8    17   ar
    14     9    14   ar
    15     9    17   ar
    16    10    22   ar
    17    10    33   ar
    18    11    22   ar
    19    11    34   ar
    20    12    13   ar
    21    13    14   ar
    22    15    18   ar
    23    15    21   ar
    24    16    19    2
    25    17    22    1
    26    18    23   ar
    27    19    20    1
    28    20    26   ar
    29    20    27   ar
    30    21    24   ar
    31    23    25   ar
    32    24    25   ar
    33    26    28   ar
    34    27    29   ar
    35    28    30   ar
    36    29    30   ar
    37    33    35   ar
    38    34    35   ar
    39     7    36    1
    40    16    37    1
    41    19    38    1
    42    21    39    1
    43    23    40    1
    44    24    41    1
    45    25    42    1
    46    26    43    1
    47    27    44    1
    48    28    45    1
    49    29    46    1
    50    30    47    1
    51    31    48    1
    52    31    49    1
    53    31    50    1
    54    32    51    1
    55    32    52    1
    56    32    53    1
    57    33    54    1
    58    34    55    1
    59    35    56    1
@<TRIPOS>MOLECULE
9957262
 56 59 0 0 0
SMALL
GASTEIGER

@<TRIPOS>ATOM
      1 S           0.2927   -1.0736    3.2217 S.O2    1  LIG1        0.0668
      2 O          -0.8653    0.6711    0.5434 O.3     1  LIG1       -0.4435
      3 O           0.7325    2.6364   -0.7594 O.3     1  LIG1       -0.4771
      4 O           0.9212    0.2130    3.4413 O.2     1  LIG1       -0.1505
      5 O           0.6834   -2.2191    4.0192 O.2     1  LIG1       -0.1505
      6 O          -3.0906    2.4705    0.9955 O.3     1  LIG1       -0.4914
      7 N           0.5611   -1.5608    1.6169 N.pl3   1  LIG1       -0.1968
      8 N           2.4477   -0.8273    0.5986 N.ar    1  LIG1       -0.2044
      9 N           2.6010    1.2370   -0.5749 N.ar    1  LIG1       -0.1867
     10 N           5.1771    0.4349   -1.4039 N.ar    1  LIG1       -0.2331
     11 N           5.2498   -0.9588    0.5360 N.ar    1  LIG1       -0.2331
     12 C           1.1510   -0.5617    0.7971 C.ar    1  LIG1        0.1883
     13 C           0.4763    0.5379    0.3114 C.ar    1  LIG1        0.2307
     14 C           1.2890    1.4422   -0.3450 C.ar    1  LIG1        0.2639
     15 C          -1.6735    1.0879   -0.4941 C.ar    1  LIG1        0.1702
     16 C          -1.4139   -0.8668    3.3916 C.2     1  LIG1        0.0729
     17 C           3.1439    0.0978   -0.0938 C.ar    1  LIG1        0.2027
     18 C          -2.7351    1.9650   -0.2275 C.ar    1  LIG1        0.1621
     19 C          -2.2496   -1.8432    3.0123 C.2     1  LIG1       -0.0353
     20 C          -3.6876   -1.7095    3.2299 C.ar    1  LIG1       -0.0237
     21 C          -1.5073    0.5826   -1.7951 C.ar    1  LIG1       -0.0157
     22 C           4.5929   -0.1508   -0.3307 C.ar    1  LIG1        0.1978
     23 C          -3.5916    2.3452   -1.2683 C.ar    1  LIG1       -0.0163
     24 C          -2.3499    0.9932   -2.8299 C.ar    1  LIG1       -0.0581
     25 C          -3.3899    1.8789   -2.5674 C.ar    1  LIG1       -0.0581
     26 C          -4.3031   -2.4624    4.2356 C.ar    1  LIG1       -0.0546
     27 C          -4.4520   -0.8205    2.4673 C.ar    1  LIG1       -0.0546
     28 C          -5.6703   -2.3229    4.4800 C.ar    1  LIG1       -0.0612
     29 C          -5.8198   -0.6851    2.7112 C.ar    1  LIG1       -0.0612
     30 C          -6.4277   -1.4345    3.7179 C.ar    1  LIG1       -0.0617
     31 C           1.6323    3.4762   -1.4750 C.3     1  LIG1        0.0805
     32 C          -2.0171    2.8603    1.8443 C.3     1  LIG1        0.0790
     33 C           6.4855    0.1835   -1.5914 C.ar    1  LIG1        0.0315
     34 C           6.5592   -1.1603    0.3049 C.ar    1  LIG1        0.0315
     35 C           7.2352   -0.6107   -0.7575 C.ar    1  LIG1       -0.0254
     36 H           1.2073   -2.3514    1.6612 H       1  LIG1        0.1753
     37 H          -1.7501    0.0463    3.8612 H       1  LIG1        0.0838
     38 H          -1.9017   -2.7772    2.5807 H       1  LIG1        0.0637
     39 H          -0.7237   -0.1353   -2.0209 H       1  LIG1        0.0655
     40 H          -4.4189    3.0207   -1.0632 H       1  LIG1        0.0655
     41 H          -2.1991    0.6139   -3.8374 H       1  LIG1        0.0619
     42 H          -4.0521    2.1978   -3.3682 H       1  LIG1        0.0619
     43 H          -3.7207   -3.1514    4.8436 H       1  LIG1        0.0623
     44 H          -3.9916   -0.2267    1.6807 H       1  LIG1        0.0623
     45 H          -6.1423   -2.9039    5.2681 H       1  LIG1        0.0618
     46 H          -6.4085    0.0088    2.1166 H       1  LIG1        0.0618
     47 H          -7.4917   -1.3244    3.9100 H       1  LIG1        0.0618
     48 H           1.0797    4.3688   -1.7835 H       1  LIG1        0.0660
     49 H           2.0011    2.9837   -2.3814 H       1  LIG1        0.0660
     50 H           2.4611    3.8012   -0.8369 H       1  LIG1        0.0660
     51 H          -2.4039    3.6095    2.5419 H       1  LIG1        0.0660
     52 H          -1.1901    3.3163    1.2910 H       1  LIG1        0.0660
     53 H          -1.6754    2.0115    2.4404 H       1  LIG1        0.0660
     54 H           6.9281    0.6574   -2.4624 H       1  LIG1        0.0831
     55 H           7.0643   -1.7980    1.0253 H       1  LIG1        0.0831
     56 H           8.2877   -0.7923   -0.9254 H       1  LIG1        0.0648
@<TRIPOS>BOND
     1     1     4    2
     2     1     5    2
     3     1     7    1
     4     1    16    1
     5     2    13    1
     6     2    15    1
     7     3    14    1
     8     3    31    1
     9     6    18    1
    10     6    32    1
    11     7    12    1
    12     8    12   ar
    13     8    17   ar
    14     9    14   ar
    15     9    17   ar
    16    10    22   ar
    17    10    33   ar
    18    11    22   ar
    19    11    34   ar
    20    12    13   ar
    21    13    14   ar
    22    15    18   ar
    23    15    21   ar
    24    16    19    2
    25    17    22    1
    26    18    23   ar
    27    19    20    1
    28    20    26   ar
    29    20    27   ar
    30    21    24   ar
    31    23    25   ar
    32    24    25   ar
    33    26    28   ar
    34    27    29   ar
    35    28    30   ar
    36    29    30   ar
    37    33    35   ar
    38    34    35   ar
    39     7    36    1
    40    16    37    1
    41    19    38    1
    42    21    39    1
    43    23    40    1
    44    24    41    1
    45    25    42    1
    46    26    43    1
    47    27    44    1
    48    28    45    1
    49    29    46    1
    50    30    47    1
    51    31    48    1
    52    31    49    1
    53    31    50    1
    54    32    51    1
    55    32    52    1
    56    32    53    1
    57    33    54    1
    58    34    55    1
    59    35    56    1
@<TRIPOS>MOLECULE
9957262
 56 59 0 0 0
SMALL
GASTEIGER

@<TRIPOS>ATOM
      1 S          -0.2096   -3.0547    0.8676 S.O2    1  LIG1        0.0668
      2 O          -0.9489    0.7223    0.6280 O.3     1  LIG1       -0.4435
      3 O           0.5036    2.2933   -0.9382 O.3     1  LIG1       -0.4771
      4 O          -0.5540   -2.6252   -0.4719 O.2     1  LIG1       -0.1505
      5 O          -1.2439   -3.5687    1.7458 O.2     1  LIG1       -0.1505
      6 O          -3.3141   -0.4364    0.7107 O.3     1  LIG1       -0.4914
      7 N           0.4295   -1.7457    1.7159 N.pl3   1  LIG1       -0.1968
      8 N           2.3182   -1.0199    0.6398 N.ar    1  LIG1       -0.2044
      9 N           2.4170    0.9641   -0.6716 N.ar    1  LIG1       -0.1867
     10 N           4.9637   -1.5779   -0.1517 N.ar    1  LIG1       -0.2331
     11 N           5.1771    0.7112   -0.7985 N.ar    1  LIG1       -0.2331
     12 C           1.0334   -0.7381    0.9119 C.ar    1  LIG1        0.1883
     13 C           0.3613    0.3758    0.4346 C.ar    1  LIG1        0.2307
     14 C           1.1190    1.1773   -0.3967 C.ar    1  LIG1        0.2639
     15 C          -1.5159    0.5418    1.8680 C.ar    1  LIG1        0.1702
     16 C           1.0522   -4.2402    0.8330 C.2     1  LIG1        0.0729
     17 C           2.9855   -0.1357   -0.1339 C.ar    1  LIG1        0.2027
     18 C          -2.7635   -0.1004    1.9177 C.ar    1  LIG1        0.1621
     19 C           1.7183   -4.4906   -0.3005 C.2     1  LIG1       -0.0353
     20 C           2.7609   -5.5200   -0.4552 C.ar    1  LIG1       -0.0237
     21 C          -0.8866    0.9774    3.0398 C.ar    1  LIG1       -0.0157
     22 C           4.4416   -0.3501   -0.3794 C.ar    1  LIG1        0.1978
     23 C          -3.3230   -0.3927    3.1620 C.ar    1  LIG1       -0.0163
     24 C          -1.4590    0.6854    4.2757 C.ar    1  LIG1       -0.0581
     25 C          -2.6662   -0.0108    4.3361 C.ar    1  LIG1       -0.0581
     26 C           3.4646   -6.0709    0.6227 C.ar    1  LIG1       -0.0546
     27 C           3.0795   -5.9539   -1.7514 C.ar    1  LIG1       -0.0546
     28 C           4.4452   -7.0457    0.4139 C.ar    1  LIG1       -0.0612
     29 C           4.0620   -6.9251   -1.9612 C.ar    1  LIG1       -0.0612
     30 C           4.7424   -7.4734   -0.8775 C.ar    1  LIG1       -0.0617
     31 C           1.2958    2.9634   -1.9137 C.3     1  LIG1        0.0805
     32 C          -4.6857   -0.8069    0.7062 C.3     1  LIG1        0.0790
     33 C           6.2848   -1.7253   -0.3678 C.ar    1  LIG1        0.0315
     34 C           6.4922    0.5058   -0.9868 C.ar    1  LIG1        0.0315
     35 C           7.1064   -0.7059   -0.7853 C.ar    1  LIG1       -0.0254
     36 H          -0.3008   -1.4177    2.3405 H       1  LIG1        0.1753
     37 H           1.2188   -4.7693    1.7592 H       1  LIG1        0.0838
     38 H           1.4810   -3.9279   -1.2030 H       1  LIG1        0.0637
     39 H           0.0536    1.5210    2.9989 H       1  LIG1        0.0655
     40 H          -4.2591   -0.9350    3.2507 H       1  LIG1        0.0655
     41 H          -0.9626    0.9922    5.1932 H       1  LIG1        0.0619
     42 H          -3.1038   -0.2547    5.3014 H       1  LIG1        0.0619
     43 H           3.2721   -5.7488    1.6424 H       1  LIG1        0.0623
     44 H           2.5590   -5.5432   -2.6145 H       1  LIG1        0.0623
     45 H           4.9775   -7.4677    1.2622 H       1  LIG1        0.0618
     46 H           4.2922   -7.2524   -2.9716 H       1  LIG1        0.0618
     47 H           5.5049   -8.2305   -1.0393 H       1  LIG1        0.0618
     48 H           0.6922    3.7746   -2.3325 H       1  LIG1        0.0660
     49 H           1.5682    2.2938   -2.7372 H       1  LIG1        0.0660
     50 H           2.1859    3.4109   -1.4587 H       1  LIG1        0.0660
     51 H          -5.0154   -0.8549   -0.3363 H       1  LIG1        0.0660
     52 H          -5.3055   -0.0599    1.2141 H       1  LIG1        0.0660
     53 H          -4.8216   -1.7990    1.1473 H       1  LIG1        0.0660
     54 H           6.6731   -2.7228   -0.1859 H       1  LIG1        0.0831
     55 H           7.0550    1.3751   -1.3137 H       1  LIG1        0.0831
     56 H           8.1660   -0.8476   -0.9444 H       1  LIG1        0.0648
@<TRIPOS>BOND
     1     1     4    2
     2     1     5    2
     3     1     7    1
     4     1    16    1
     5     2    13    1
     6     2    15    1
     7     3    14    1
     8     3    31    1
     9     6    18    1
    10     6    32    1
    11     7    12    1
    12     8    12   ar
    13     8    17   ar
    14     9    14   ar
    15     9    17   ar
    16    10    22   ar
    17    10    33   ar
    18    11    22   ar
    19    11    34   ar
    20    12    13   ar
    21    13    14   ar
    22    15    18   ar
    23    15    21   ar
    24    16    19    2
    25    17    22    1
    26    18    23   ar
    27    19    20    1
    28    20    26   ar
    29    20    27   ar
    30    21    24   ar
    31    23    25   ar
    32    24    25   ar
    33    26    28   ar
    34    27    29   ar
    35    28    30   ar
    36    29    30   ar
    37    33    35   ar
    38    34    35   ar
    39     7    36    1
    40    16    37    1
    41    19    38    1
    42    21    39    1
    43    23    40    1
    44    24    41    1
    45    25    42    1
    46    26    43    1
    47    27    44    1
    48    28    45    1
    49    29    46    1
    50    30    47    1
    51    31    48    1
    52    31    49    1
    53    31    50    1
    54    32    51    1
    55    32    52    1
    56    32    53    1
    57    33    54    1
    58    34    55    1
    59    35    56    1
@<TRIPOS>MOLECULE
9957262
 56 59 0 0 0
SMALL
GASTEIGER

@<TRIPOS>ATOM
      1 S          -0.2256   -2.8244    0.8841 S.O2    1  LIG1        0.0668
      2 O          -0.8895    0.6157    0.5172 O.3     1  LIG1       -0.4435
      3 O           0.7277    2.5151   -0.8783 O.3     1  LIG1       -0.4771
      4 O           0.5227   -3.0628   -0.3292 O.2     1  LIG1       -0.1505
      5 O          -1.6434   -2.5275    0.8213 O.2     1  LIG1       -0.1505
      6 O          -3.0456    2.5922    0.9103 O.3     1  LIG1       -0.4914
      7 N           0.4380   -1.5103    1.7266 N.pl3   1  LIG1       -0.1968
      8 N           2.4292   -0.8318    0.7631 N.ar    1  LIG1       -0.2044
      9 N           2.5899    1.1310   -0.5766 N.ar    1  LIG1       -0.1867
     10 N           5.1534    0.3154   -1.3365 N.ar    1  LIG1       -0.2331
     11 N           5.2532   -0.9761    0.6713 N.ar    1  LIG1       -0.2331
     12 C           1.1199   -0.5768    0.8904 C.ar    1  LIG1        0.1883
     13 C           0.4527    0.4722    0.2886 C.ar    1  LIG1        0.2307
     14 C           1.2729    1.3400   -0.4010 C.ar    1  LIG1        0.2639
     15 C          -1.6979    1.0418   -0.5144 C.ar    1  LIG1        0.1702
     16 C          -0.0264   -4.1613    1.9686 C.2     1  LIG1        0.0729
     17 C           3.1278    0.0281   -0.0069 C.ar    1  LIG1        0.2027
     18 C          -2.7119    1.9798   -0.2681 C.ar    1  LIG1        0.1621
     19 C           1.2037   -4.6287    2.2293 C.2     1  LIG1       -0.0353
     20 C           1.4448   -5.7448    3.1511 C.ar    1  LIG1       -0.0237
     21 C          -1.5637    0.4833   -1.7989 C.ar    1  LIG1       -0.0157
     22 C           4.5787   -0.2283   -0.2344 C.ar    1  LIG1        0.1978
     23 C          -3.5387    2.3762   -1.3299 C.ar    1  LIG1       -0.0163
     24 C          -2.3831    0.9049   -2.8468 C.ar    1  LIG1       -0.0581
     25 C          -3.3686    1.8568   -2.6134 C.ar    1  LIG1       -0.0581
     26 C           2.3052   -6.7789    2.7648 C.ar    1  LIG1       -0.0546
     27 C           0.8738   -5.7804    4.4306 C.ar    1  LIG1       -0.0546
     28 C           2.5706   -7.8426    3.6319 C.ar    1  LIG1       -0.0612
     29 C           1.1425   -6.8422    5.2985 C.ar    1  LIG1       -0.0612
     30 C           1.9883   -7.8742    4.8978 C.ar    1  LIG1       -0.0617
     31 C           1.6485    3.3347   -1.5902 C.3     1  LIG1        0.0805
     32 C          -2.1582    2.4865    2.0111 C.3     1  LIG1        0.0790
     33 C           6.4627    0.0722   -1.5229 C.ar    1  LIG1        0.0315
     34 C           6.5633   -1.1750    0.4361 C.ar    1  LIG1        0.0315
     35 C           7.2260   -0.6719   -0.6574 C.ar    1  LIG1       -0.0254
     36 H          -0.3515   -1.0575    2.1895 H       1  LIG1        0.1753
     37 H          -0.9247   -4.5734    2.4045 H       1  LIG1        0.0838
     38 H           2.0823   -4.2037    1.7448 H       1  LIG1        0.0637
     39 H          -0.8212   -0.2856   -1.9990 H       1  LIG1        0.0655
     40 H          -4.3255    3.1058   -1.1503 H       1  LIG1        0.0655
     41 H          -2.2557    0.4836   -3.8407 H       1  LIG1        0.0619
     42 H          -4.0138    2.1876   -3.4229 H       1  LIG1        0.0619
     43 H           2.7698   -6.7709    1.7809 H       1  LIG1        0.0623
     44 H           0.2255   -4.9770    4.7715 H       1  LIG1        0.0623
     45 H           3.2337   -8.6452    3.3191 H       1  LIG1        0.0618
     46 H           0.6961   -6.8599    6.2896 H       1  LIG1        0.0618
     47 H           2.1979   -8.6998    5.5732 H       1  LIG1        0.0618
     48 H           1.1038    4.2150   -1.9452 H       1  LIG1        0.0660
     49 H           2.0503    2.8152   -2.4667 H       1  LIG1        0.0660
     50 H           2.4536    3.6842   -0.9348 H       1  LIG1        0.0660
     51 H          -2.5301    3.1469    2.8006 H       1  LIG1        0.0660
     52 H          -1.1516    2.8274    1.7494 H       1  LIG1        0.0660
     53 H          -2.1537    1.4705    2.4178 H       1  LIG1        0.0660
     54 H           6.8922    0.5094   -2.4198 H       1  LIG1        0.0831
     55 H           7.0814   -1.7721    1.1810 H       1  LIG1        0.0831
     56 H           8.2785   -0.8501   -0.8261 H       1  LIG1        0.0648
@<TRIPOS>BOND
     1     1     4    2
     2     1     5    2
     3     1     7    1
     4     1    16    1
     5     2    13    1
     6     2    15    1
     7     3    14    1
     8     3    31    1
     9     6    18    1
    10     6    32    1
    11     7    12    1
    12     8    12   ar
    13     8    17   ar
    14     9    14   ar
    15     9    17   ar
    16    10    22   ar
    17    10    33   ar
    18    11    22   ar
    19    11    34   ar
    20    12    13   ar
    21    13    14   ar
    22    15    18   ar
    23    15    21   ar
    24    16    19    2
    25    17    22    1
    26    18    23   ar
    27    19    20    1
    28    20    26   ar
    29    20    27   ar
    30    21    24   ar
    31    23    25   ar
    32    24    25   ar
    33    26    28   ar
    34    27    29   ar
    35    28    30   ar
    36    29    30   ar
    37    33    35   ar
    38    34    35   ar
    39     7    36    1
    40    16    37    1
    41    19    38    1
    42    21    39    1
    43    23    40    1
    44    24    41    1
    45    25    42    1
    46    26    43    1
    47    27    44    1
    48    28    45    1
    49    29    46    1
    50    30    47    1
    51    31    48    1
    52    31    49    1
    53    31    50    1
    54    32    51    1
    55    32    52    1
    56    32    53    1
    57    33    54    1
    58    34    55    1
    59    35    56    1
@<TRIPOS>MOLECULE
9957262
 56 59 0 0 0
SMALL
GASTEIGER

@<TRIPOS>ATOM
      1 S           0.3009   -1.0418    3.2470 S.O2    1  LIG1        0.0668
      2 O          -0.9146    0.6196    0.4133 O.3     1  LIG1       -0.4435
      3 O           0.6803    2.6587   -0.8103 O.3     1  LIG1       -0.4771
      4 O           0.1338   -2.2802    3.9799 O.2     1  LIG1       -0.1505
      5 O          -0.7779   -0.0713    3.2639 O.2     1  LIG1       -0.1505
      6 O          -0.6502   -0.4819   -2.1524 O.3     1  LIG1       -0.4914
      7 N           0.4884   -1.4951    1.6208 N.pl3   1  LIG1       -0.1968
      8 N           2.4494   -0.6913    0.7358 N.ar    1  LIG1       -0.2044
      9 N           2.5892    1.3437   -0.4811 N.ar    1  LIG1       -0.1867
     10 N           5.1109   -1.2176    0.1494 N.ar    1  LIG1       -0.2331
     11 N           5.3475    1.0005   -0.7002 N.ar    1  LIG1       -0.2331
     12 C           1.1232   -0.5076    0.8101 C.ar    1  LIG1        0.1883
     13 C           0.4418    0.5570    0.2596 C.ar    1  LIG1        0.2307
     14 C           1.2550    1.4901   -0.3502 C.ar    1  LIG1        0.2639
     15 C          -1.6787    1.0377   -0.6551 C.ar    1  LIG1        0.1702
     16 C           1.7802   -0.2938    3.7687 C.2     1  LIG1        0.0729
     17 C           3.1464    0.2324    0.0459 C.ar    1  LIG1        0.2027
     18 C          -1.5665    0.5185   -1.9569 C.ar    1  LIG1        0.1621
     19 C           1.8171    1.0366    3.9524 C.2     1  LIG1       -0.0353
     20 C           2.9984    1.8148    4.3518 C.ar    1  LIG1       -0.0237
     21 C          -2.6489    1.9986   -0.3518 C.ar    1  LIG1       -0.0157
     22 C           4.6057    0.0001   -0.1669 C.ar    1  LIG1        0.1978
     23 C          -2.4113    1.0198   -2.9534 C.ar    1  LIG1       -0.0163
     24 C          -3.4831    2.4884   -1.3528 C.ar    1  LIG1       -0.0581
     25 C          -3.3591    2.0046   -2.6528 C.ar    1  LIG1       -0.0581
     26 C           4.3109    1.3933    4.1058 C.ar    1  LIG1       -0.0546
     27 C           2.7976    3.0708    4.9448 C.ar    1  LIG1       -0.0546
     28 C           5.3957    2.1993    4.4656 C.ar    1  LIG1       -0.0612
     29 C           3.8813    3.8770    5.3016 C.ar    1  LIG1       -0.0612
     30 C           5.1810    3.4392    5.0640 C.ar    1  LIG1       -0.0617
     31 C           1.5928    3.5273   -1.4725 C.3     1  LIG1        0.0805
     32 C          -0.3124   -0.7933   -3.4988 C.3     1  LIG1        0.0790
     33 C           6.4161   -1.4218   -0.1036 C.ar    1  LIG1        0.0315
     34 C           6.6495    0.7413   -0.9199 C.ar    1  LIG1        0.0315
     35 C           7.2420   -0.4669   -0.6435 C.ar    1  LIG1       -0.0254
     36 H          -0.4503   -1.6942    1.2717 H       1  LIG1        0.1753
     37 H           2.6250   -0.9519    3.9053 H       1  LIG1        0.0838
     38 H           0.9131    1.6278    3.8069 H       1  LIG1        0.0637
     39 H          -2.7421    2.3705    0.6655 H       1  LIG1        0.0655
     40 H          -2.3709    0.6544   -3.9741 H       1  LIG1        0.0655
     41 H          -4.2289    3.2434   -1.1179 H       1  LIG1        0.0619
     42 H          -4.0111    2.3853   -3.4354 H       1  LIG1        0.0619
     43 H           4.5128    0.4426    3.6186 H       1  LIG1        0.0623
     44 H           1.7907    3.4370    5.1366 H       1  LIG1        0.0623
     45 H           6.4093    1.8601    4.2699 H       1  LIG1        0.0618
     46 H           3.7077    4.8469    5.7612 H       1  LIG1        0.0618
     47 H           6.0249    4.0666    5.3382 H       1  LIG1        0.0618
     48 H           1.0292    4.3982   -1.8207 H       1  LIG1        0.0660
     49 H           2.0347    3.0441   -2.3509 H       1  LIG1        0.0660
     50 H           2.3681    3.8849   -0.7863 H       1  LIG1        0.0660
     51 H           0.5282   -1.4935   -3.4788 H       1  LIG1        0.0660
     52 H           0.0110    0.0985   -4.0467 H       1  LIG1        0.0660
     53 H          -1.1462   -1.2891   -4.0060 H       1  LIG1        0.0660
     54 H           6.7865   -2.4125    0.1446 H       1  LIG1        0.0831
     55 H           7.2196    1.5624   -1.3444 H       1  LIG1        0.0831
     56 H           8.2883   -0.6545   -0.8392 H       1  LIG1        0.0648
@<TRIPOS>BOND
     1     1     4    2
     2     1     5    2
     3     1     7    1
     4     1    16    1
     5     2    13    1
     6     2    15    1
     7     3    14    1
     8     3    31    1
     9     6    18    1
    10     6    32    1
    11     7    12    1
    12     8    12   ar
    13     8    17   ar
    14     9    14   ar
    15     9    17   ar
    16    10    22   ar
    17    10    33   ar
    18    11    22   ar
    19    11    34   ar
    20    12    13   ar
    21    13    14   ar
    22    15    18   ar
    23    15    21   ar
    24    16    19    2
    25    17    22    1
    26    18    23   ar
    27    19    20    1
    28    20    26   ar
    29    20    27   ar
    30    21    24   ar
    31    23    25   ar
    32    24    25   ar
    33    26    28   ar
    34    27    29   ar
    35    28    30   ar
    36    29    30   ar
    37    33    35   ar
    38    34    35   ar
    39     7    36    1
    40    16    37    1
    41    19    38    1
    42    21    39    1
    43    23    40    1
    44    24    41    1
    45    25    42    1
    46    26    43    1
    47    27    44    1
    48    28    45    1
    49    29    46    1
    50    30    47    1
    51    31    48    1
    52    31    49    1
    53    31    50    1
    54    32    51    1
    55    32    52    1
    56    32    53    1
    57    33    54    1
    58    34    55    1
    59    35    56    1
@<TRIPOS>MOLECULE
9957262
 56 59 0 0 0
SMALL
GASTEIGER

@<TRIPOS>ATOM
      1 S          -0.1544   -2.7761    0.9837 S.O2    1  LIG1        0.0668
      2 O          -0.9597    0.7765    0.4485 O.3     1  LIG1       -0.4435
      3 O           0.7099    2.6352   -0.9393 O.3     1  LIG1       -0.4771
      4 O           0.8011   -3.1335   -0.0423 O.2     1  LIG1       -0.1505
      5 O          -1.5473   -2.5837    0.6333 O.2     1  LIG1       -0.1505
      6 O          -2.9331    2.4688    0.8894 O.3     1  LIG1       -0.4914
      7 N           0.2935   -1.3227    1.7336 N.pl3   1  LIG1       -0.1968
      8 N           2.3313   -0.6961    0.8133 N.ar    1  LIG1       -0.2044
      9 N           2.5545    1.2515   -0.5371 N.ar    1  LIG1       -0.1867
     10 N           4.9776   -1.3761    0.1604 N.ar    1  LIG1       -0.2331
     11 N           5.2936    0.8419   -0.6632 N.ar    1  LIG1       -0.2331
     12 C           1.0209   -0.4293    0.8930 C.ar    1  LIG1        0.1883
     13 C           0.3850    0.6194    0.2615 C.ar    1  LIG1        0.2307
     14 C           1.2334    1.4734   -0.4086 C.ar    1  LIG1        0.2639
     15 C          -1.7408    1.1243   -0.6355 C.ar    1  LIG1        0.1702
     16 C          -0.1059   -3.9848    2.2317 C.2     1  LIG1        0.0729
     17 C           3.0635    0.1473    0.0567 C.ar    1  LIG1        0.2027
     18 C          -2.7935    2.0246   -0.4011 C.ar    1  LIG1        0.1621
     19 C           0.6962   -3.8346    3.2981 C.2     1  LIG1       -0.0353
     20 C           0.7767   -4.7652    4.4371 C.ar    1  LIG1       -0.0237
     21 C          -1.5545    0.5670   -1.9071 C.ar    1  LIG1       -0.0157
     22 C           4.5141   -0.1419   -0.1475 C.ar    1  LIG1        0.1978
     23 C          -3.5985    2.4227   -1.4726 C.ar    1  LIG1       -0.0163
     24 C          -2.3685    0.9672   -2.9658 C.ar    1  LIG1       -0.0581
     25 C          -3.3802    1.9012   -2.7511 C.ar    1  LIG1       -0.0581
     26 C           0.4157   -6.1164    4.3527 C.ar    1  LIG1       -0.0546
     27 C           1.2784   -4.2847    5.6565 C.ar    1  LIG1       -0.0546
     28 C           0.5346   -6.9585    5.4635 C.ar    1  LIG1       -0.0612
     29 C           1.3988   -5.1264    6.7662 C.ar    1  LIG1       -0.0612
     30 C           1.0247   -6.4636    6.6695 C.ar    1  LIG1       -0.0617
     31 C           1.6726    3.4604   -1.5860 C.3     1  LIG1        0.0805
     32 C          -4.1629    3.1018    1.2169 C.3     1  LIG1        0.0790
     33 C           6.2779   -1.6177   -0.0860 C.ar    1  LIG1        0.0315
     34 C           6.5880    0.5451   -0.8770 C.ar    1  LIG1        0.0315
     35 C           7.1388   -0.6837   -0.6088 C.ar    1  LIG1       -0.0254
     36 H          -0.5808   -0.8851    2.0347 H       1  LIG1        0.1753
     37 H          -0.7688   -4.8245    2.0893 H       1  LIG1        0.0838
     38 H           1.3374   -2.9576    3.3765 H       1  LIG1        0.0637
     39 H          -0.7820   -0.1752   -2.0879 H       1  LIG1        0.0655
     40 H          -4.3980    3.1450   -1.3469 H       1  LIG1        0.0655
     41 H          -2.2124    0.5513   -3.9580 H       1  LIG1        0.0619
     42 H          -4.0074    2.2197   -3.5798 H       1  LIG1        0.0619
     43 H           0.0482   -6.5426    3.4234 H       1  LIG1        0.0623
     44 H           1.5797   -3.2441    5.7588 H       1  LIG1        0.0623
     45 H           0.2497   -8.0047    5.3829 H       1  LIG1        0.0618
     46 H           1.7879   -4.7366    7.7034 H       1  LIG1        0.0618
     47 H           1.1205   -7.1203    7.5303 H       1  LIG1        0.0618
     48 H           1.1502    4.3421   -1.9696 H       1  LIG1        0.0660
     49 H           2.1284    2.9460   -2.4389 H       1  LIG1        0.0660
     50 H           2.4352    3.8069   -0.8801 H       1  LIG1        0.0660
     51 H          -4.1919    3.2319    2.3030 H       1  LIG1        0.0660
     52 H          -5.0217    2.4831    0.9346 H       1  LIG1        0.0660
     53 H          -4.2230    4.0944    0.7600 H       1  LIG1        0.0660
     54 H           6.6152   -2.6218    0.1549 H       1  LIG1        0.0831
     55 H           7.1864    1.3528   -1.2882 H       1  LIG1        0.0831
     56 H           8.1803   -0.9019   -0.7978 H       1  LIG1        0.0648
@<TRIPOS>BOND
     1     1     4    2
     2     1     5    2
     3     1     7    1
     4     1    16    1
     5     2    13    1
     6     2    15    1
     7     3    14    1
     8     3    31    1
     9     6    18    1
    10     6    32    1
    11     7    12    1
    12     8    12   ar
    13     8    17   ar
    14     9    14   ar
    15     9    17   ar
    16    10    22   ar
    17    10    33   ar
    18    11    22   ar
    19    11    34   ar
    20    12    13   ar
    21    13    14   ar
    22    15    18   ar
    23    15    21   ar
    24    16    19    2
    25    17    22    1
    26    18    23   ar
    27    19    20    1
    28    20    26   ar
    29    20    27   ar
    30    21    24   ar
    31    23    25   ar
    32    24    25   ar
    33    26    28   ar
    34    27    29   ar
    35    28    30   ar
    36    29    30   ar
    37    33    35   ar
    38    34    35   ar
    39     7    36    1
    40    16    37    1
    41    19    38    1
    42    21    39    1
    43    23    40    1
    44    24    41    1
    45    25    42    1
    46    26    43    1
    47    27    44    1
    48    28    45    1
    49    29    46    1
    50    30    47    1
    51    31    48    1
    52    31    49    1
    53    31    50    1
    54    32    51    1
    55    32    52    1
    56    32    53    1
    57    33    54    1
    58    34    55    1
    59    35    56    1
@<TRIPOS>MOLECULE
9957262
 56 59 0 0 0
SMALL
GASTEIGER

@<TRIPOS>ATOM
      1 S          -0.1918   -2.7759    0.8652 S.O2    1  LIG1        0.0668
      2 O          -0.8623    0.6393    0.4193 O.3     1  LIG1       -0.4435
      3 O           0.7768    2.5956   -0.8687 O.3     1  LIG1       -0.4771
      4 O          -0.2194   -3.8599    1.8293 O.2     1  LIG1       -0.1505
      5 O           0.4905   -2.9514   -0.4013 O.2     1  LIG1       -0.1505
      6 O          -3.1376    2.3981    0.9677 O.3     1  LIG1       -0.4914
      7 N           0.5510   -1.4954    1.6906 N.pl3   1  LIG1       -0.1968
      8 N           2.4887   -0.7146    0.8063 N.ar    1  LIG1       -0.2044
      9 N           2.6487    1.2386   -0.5357 N.ar    1  LIG1       -0.1867
     10 N           5.2217    0.3959   -1.2813 N.ar    1  LIG1       -0.2331
     11 N           5.2956   -0.8778    0.7401 N.ar    1  LIG1       -0.2331
     12 C           1.1659   -0.5112    0.8661 C.ar    1  LIG1        0.1883
     13 C           0.4886    0.5191    0.2440 C.ar    1  LIG1        0.2307
     14 C           1.3212    1.4172   -0.3976 C.ar    1  LIG1        0.2639
     15 C          -1.6438    1.1551   -0.5940 C.ar    1  LIG1        0.1702
     16 C          -1.8320   -2.2831    0.6015 C.2     1  LIG1        0.0729
     17 C           3.1917    0.1504    0.0486 C.ar    1  LIG1        0.2027
     18 C          -2.7315    1.9814   -0.2726 C.ar    1  LIG1        0.1621
     19 C          -2.3598   -2.3626   -0.6297 C.2     1  LIG1       -0.0353
     20 C          -3.7125   -1.9293   -1.0199 C.ar    1  LIG1       -0.0237
     21 C          -1.4372    0.7735   -1.9324 C.ar    1  LIG1       -0.0157
     22 C           4.6407   -0.1160   -0.1685 C.ar    1  LIG1        0.1978
     23 C          -3.5704    2.4340   -1.3009 C.ar    1  LIG1       -0.0163
     24 C          -2.2688    1.2512   -2.9463 C.ar    1  LIG1       -0.0581
     25 C          -3.3354    2.0844   -2.6305 C.ar    1  LIG1       -0.0581
     26 C          -4.6096   -1.3032   -0.1446 C.ar    1  LIG1       -0.0546
     27 C          -4.1035   -2.1086   -2.3559 C.ar    1  LIG1       -0.0546
     28 C          -5.8614   -0.8706   -0.5924 C.ar    1  LIG1       -0.0612
     29 C          -5.3534   -1.6745   -2.8042 C.ar    1  LIG1       -0.0612
     30 C          -6.2327   -1.0554   -1.9212 C.ar    1  LIG1       -0.0617
     31 C           1.6978    3.4244   -1.5698 C.3     1  LIG1        0.0805
     32 C          -2.1691    2.4331    2.0052 C.3     1  LIG1        0.0790
     33 C           6.5187    0.0997   -1.4783 C.ar    1  LIG1        0.0315
     34 C           6.5939   -1.1305    0.4934 C.ar    1  LIG1        0.0315
     35 C           7.2619   -0.6664   -0.6139 C.ar    1  LIG1       -0.0254
     36 H           1.2825   -1.9156    2.2676 H       1  LIG1        0.1753
     37 H          -2.3613   -1.9252    1.4694 H       1  LIG1        0.0838
     38 H          -1.7482   -2.7448   -1.4468 H       1  LIG1        0.0637
     39 H          -0.6366    0.0899   -2.2018 H       1  LIG1        0.0655
     40 H          -4.4204    3.0678   -1.0586 H       1  LIG1        0.0655
     41 H          -2.0940    0.9575   -3.9779 H       1  LIG1        0.0619
     42 H          -3.9958    2.4489   -3.4127 H       1  LIG1        0.0619
     43 H          -4.3523   -1.1172    0.8936 H       1  LIG1        0.0623
     44 H          -3.4311   -2.5781   -3.0709 H       1  LIG1        0.0623
     45 H          -6.5403   -0.3773    0.0984 H       1  LIG1        0.0618
     46 H          -5.6344   -1.8142   -3.8444 H       1  LIG1        0.0618
     47 H          -7.2028   -0.7112   -2.2684 H       1  LIG1        0.0618
     48 H           1.1482    4.2982   -1.9329 H       1  LIG1        0.0660
     49 H           2.1159    2.9082   -2.4408 H       1  LIG1        0.0660
     50 H           2.4906    3.7829   -0.9044 H       1  LIG1        0.0660
     51 H          -2.5706    3.0563    2.8104 H       1  LIG1        0.0660
     52 H          -1.2304    2.8898    1.6753 H       1  LIG1        0.0660
     53 H          -2.0112    1.4330    2.4199 H       1  LIG1        0.0660
     54 H           6.9546    0.5082   -2.3856 H       1  LIG1        0.0831
     55 H           7.0961   -1.7419    1.2377 H       1  LIG1        0.0831
     56 H           8.3037   -0.8908   -0.7940 H       1  LIG1        0.0648
@<TRIPOS>BOND
     1     1     4    2
     2     1     5    2
     3     1     7    1
     4     1    16    1
     5     2    13    1
     6     2    15    1
     7     3    14    1
     8     3    31    1
     9     6    18    1
    10     6    32    1
    11     7    12    1
    12     8    12   ar
    13     8    17   ar
    14     9    14   ar
    15     9    17   ar
    16    10    22   ar
    17    10    33   ar
    18    11    22   ar
    19    11    34   ar
    20    12    13   ar
    21    13    14   ar
    22    15    18   ar
    23    15    21   ar
    24    16    19    2
    25    17    22    1
    26    18    23   ar
    27    19    20    1
    28    20    26   ar
    29    20    27   ar
    30    21    24   ar
    31    23    25   ar
    32    24    25   ar
    33    26    28   ar
    34    27    29   ar
    35    28    30   ar
    36    29    30   ar
    37    33    35   ar
    38    34    35   ar
    39     7    36    1
    40    16    37    1
    41    19    38    1
    42    21    39    1
    43    23    40    1
    44    24    41    1
    45    25    42    1
    46    26    43    1
    47    27    44    1
    48    28    45    1
    49    29    46    1
    50    30    47    1
    51    31    48    1
    52    31    49    1
    53    31    50    1
    54    32    51    1
    55    32    52    1
    56    32    53    1
    57    33    54    1
    58    34    55    1
    59    35    56    1
@<TRIPOS>MOLECULE
9957262
 56 59 0 0 0
SMALL
GASTEIGER

@<TRIPOS>ATOM
      1 S          -0.1509   -3.0572    0.7888 S.O2    1  LIG1        0.0668
      2 O          -0.9533    0.7479    0.6453 O.3     1  LIG1       -0.4435
      3 O           0.5273    2.3453   -0.8806 O.3     1  LIG1       -0.4771
      4 O          -0.4732   -2.6054   -0.5490 O.2     1  LIG1       -0.1505
      5 O          -1.1817   -3.6545    1.6168 O.2     1  LIG1       -0.1505
      6 O          -3.3443   -0.3921    0.7653 O.3     1  LIG1       -0.4914
      7 N           0.3890   -1.7384    1.6905 N.pl3   1  LIG1       -0.1968
      8 N           2.3055   -1.0043    0.6651 N.ar    1  LIG1       -0.2044
      9 N           2.4290    0.9977   -0.6173 N.ar    1  LIG1       -0.1867
     10 N           4.9482   -1.5792   -0.0826 N.ar    1  LIG1       -0.2331
     11 N           5.1750    0.6835   -0.8163 N.ar    1  LIG1       -0.2331
     12 C           1.0196   -0.7144    0.9294 C.ar    1  LIG1        0.1883
     13 C           0.3601    0.4109    0.4634 C.ar    1  LIG1        0.2307
     14 C           1.1301    1.2182   -0.3491 C.ar    1  LIG1        0.2639
     15 C          -1.5181    0.5985    1.8900 C.ar    1  LIG1        0.1702
     16 C           1.1847   -4.1583    0.7144 C.2     1  LIG1        0.0729
     17 C           2.9838   -0.1156   -0.0940 C.ar    1  LIG1        0.2027
     18 C          -2.7802   -0.0094    1.9529 C.ar    1  LIG1        0.1621
     19 C           0.9453   -5.4109    0.2963 C.2     1  LIG1       -0.0353
     20 C           1.9432   -6.4868    0.2338 C.ar    1  LIG1       -0.0237
     21 C          -0.8848    1.0389    3.0569 C.ar    1  LIG1       -0.0157
     22 C           4.4354   -0.3532   -0.3489 C.ar    1  LIG1        0.1978
     23 C          -3.3541   -0.2711    3.1976 C.ar    1  LIG1       -0.0163
     24 C          -1.4736    0.7883    4.2960 C.ar    1  LIG1       -0.0581
     25 C          -2.6971    0.1216    4.3662 C.ar    1  LIG1       -0.0581
     26 C           3.3143   -6.2491    0.0757 C.ar    1  LIG1       -0.0546
     27 C           1.4939   -7.8141    0.2959 C.ar    1  LIG1       -0.0546
     28 C           4.2163   -7.3151    0.0064 C.ar    1  LIG1       -0.0612
     29 C           2.3949   -8.8789    0.2254 C.ar    1  LIG1       -0.0612
     30 C           3.7569   -8.6283    0.0835 C.ar    1  LIG1       -0.0617
     31 C           1.3106    2.9882   -1.8816 C.3     1  LIG1        0.0805
     32 C          -4.7602   -0.2570    0.7058 C.3     1  LIG1        0.0790
     33 C           6.2654   -1.7443   -0.3079 C.ar    1  LIG1        0.0315
     34 C           6.4855    0.4589   -1.0154 C.ar    1  LIG1        0.0315
     35 C           7.0907   -0.7497   -0.7756 C.ar    1  LIG1       -0.0254
     36 H          -0.3980   -1.4332    2.2571 H       1  LIG1        0.1753
     37 H           2.1469   -3.7961    1.0430 H       1  LIG1        0.0838
     38 H          -0.0672   -5.6932    0.0076 H       1  LIG1        0.0637
     39 H           0.0675    1.5600    3.0133 H       1  LIG1        0.0655
     40 H          -4.2963   -0.8042    3.2802 H       1  LIG1        0.0655
     41 H          -0.9748    1.1034    5.2096 H       1  LIG1        0.0619
     42 H          -3.1433   -0.0944    5.3345 H       1  LIG1        0.0619
     43 H           3.7006   -5.2359   -0.0049 H       1  LIG1        0.0623
     44 H           0.4340   -8.0334    0.4093 H       1  LIG1        0.0623
     45 H           5.2783   -7.1178   -0.1127 H       1  LIG1        0.0618
     46 H           2.0306   -9.9014    0.2810 H       1  LIG1        0.0618
     47 H           4.4590   -9.4559    0.0282 H       1  LIG1        0.0618
     48 H           0.7129    3.8044   -2.2990 H       1  LIG1        0.0660
     49 H           1.5533    2.3024   -2.7012 H       1  LIG1        0.0660
     50 H           2.2182    3.4253   -1.4519 H       1  LIG1        0.0660
     51 H          -5.0515   -0.2544   -0.3491 H       1  LIG1        0.0660
     52 H          -5.0985    0.6880    1.1463 H       1  LIG1        0.0660
     53 H          -5.2495   -1.1088    1.1874 H       1  LIG1        0.0660
     54 H           6.6519   -2.7361   -0.0912 H       1  LIG1        0.0831
     55 H           7.0511    1.3101   -1.3838 H       1  LIG1        0.0831
     56 H           8.1468   -0.9070   -0.9435 H       1  LIG1        0.0648
@<TRIPOS>BOND
     1     1     4    2
     2     1     5    2
     3     1     7    1
     4     1    16    1
     5     2    13    1
     6     2    15    1
     7     3    14    1
     8     3    31    1
     9     6    18    1
    10     6    32    1
    11     7    12    1
    12     8    12   ar
    13     8    17   ar
    14     9    14   ar
    15     9    17   ar
    16    10    22   ar
    17    10    33   ar
    18    11    22   ar
    19    11    34   ar
    20    12    13   ar
    21    13    14   ar
    22    15    18   ar
    23    15    21   ar
    24    16    19    2
    25    17    22    1
    26    18    23   ar
    27    19    20    1
    28    20    26   ar
    29    20    27   ar
    30    21    24   ar
    31    23    25   ar
    32    24    25   ar
    33    26    28   ar
    34    27    29   ar
    35    28    30   ar
    36    29    30   ar
    37    33    35   ar
    38    34    35   ar
    39     7    36    1
    40    16    37    1
    41    19    38    1
    42    21    39    1
    43    23    40    1
    44    24    41    1
    45    25    42    1
    46    26    43    1
    47    27    44    1
    48    28    45    1
    49    29    46    1
    50    30    47    1
    51    31    48    1
    52    31    49    1
    53    31    50    1
    54    32    51    1
    55    32    52    1
    56    32    53    1
    57    33    54    1
    58    34    55    1
    59    35    56    1
@<TRIPOS>MOLECULE
9957262
 56 59 0 0 0
SMALL
GASTEIGER

@<TRIPOS>ATOM
      1 S          -0.2757   -2.6826    1.0685 S.O2    1  LIG1        0.0668
      2 O          -0.8676    0.5579    0.4013 O.3     1  LIG1       -0.4435
      3 O           0.7068    2.4010   -1.1563 O.3     1  LIG1       -0.4771
      4 O          -0.0570   -2.6641   -0.3638 O.2     1  LIG1       -0.1505
      5 O          -1.6191   -2.6231    1.6060 O.2     1  LIG1       -0.1505
      6 O          -2.9462    2.4246    0.9173 O.3     1  LIG1       -0.4914
      7 N           0.5862   -1.4088    1.7858 N.pl3   1  LIG1       -0.1968
      8 N           2.5022   -0.7309    0.7817 N.ar    1  LIG1       -0.2044
      9 N           2.6103    1.1207   -0.7068 N.ar    1  LIG1       -0.1867
     10 N           5.1233   -1.3799    0.0988 N.ar    1  LIG1       -0.2331
     11 N           5.3954    0.8293   -0.7702 N.ar    1  LIG1       -0.2331
     12 C           1.1843   -0.5111    0.8649 C.ar    1  LIG1        0.1883
     13 C           0.4766    0.4553    0.1808 C.ar    1  LIG1        0.2307
     14 C           1.2783    1.2914   -0.5685 C.ar    1  LIG1        0.2639
     15 C          -1.6959    0.9671   -0.6176 C.ar    1  LIG1        0.1702
     16 C           0.5128   -4.0983    1.7081 C.2     1  LIG1        0.0729
     17 C           3.1802    0.0904   -0.0454 C.ar    1  LIG1        0.2027
     18 C          -2.7007    1.9000   -0.3259 C.ar    1  LIG1        0.1621
     19 C           0.3975   -4.3651    3.0199 C.2     1  LIG1       -0.0353
     20 C           1.0896   -5.4569    3.7178 C.ar    1  LIG1       -0.0237
     21 C          -1.5849    0.4516   -1.9157 C.ar    1  LIG1       -0.0157
     22 C           4.6363   -0.1614   -0.2438 C.ar    1  LIG1        0.1978
     23 C          -3.4968    2.4054   -1.3565 C.ar    1  LIG1       -0.0163
     24 C          -2.4023    0.9430   -2.9357 C.ar    1  LIG1       -0.0581
     25 C          -3.3457    1.9315   -2.6599 C.ar    1  LIG1       -0.0581
     26 C           1.3988   -6.6780    3.1061 C.ar    1  LIG1       -0.0546
     27 C           1.4170   -5.2809    5.0704 C.ar    1  LIG1       -0.0546
     28 C           2.0448   -7.6889    3.8245 C.ar    1  LIG1       -0.0612
     29 C           2.0629   -6.2908    5.7875 C.ar    1  LIG1       -0.0612
     30 C           2.3790   -7.4942    5.1631 C.ar    1  LIG1       -0.0617
     31 C           1.5809    3.1169   -2.0210 C.3     1  LIG1        0.0805
     32 C          -3.0709    1.4349    1.9390 C.3     1  LIG1        0.0790
     33 C           6.4334   -1.5926   -0.1189 C.ar    1  LIG1        0.0315
     34 C           6.7007    0.5609   -0.9536 C.ar    1  LIG1        0.0315
     35 C           7.2784   -0.6472   -0.6466 C.ar    1  LIG1       -0.0254
     36 H           1.3294   -1.7708    2.3814 H       1  LIG1        0.1753
     37 H           1.1187   -4.6682    1.0199 H       1  LIG1        0.0838
     38 H          -0.2207   -3.7270    3.6513 H       1  LIG1        0.0637
     39 H          -0.8568   -0.3218   -2.1459 H       1  LIG1        0.0655
     40 H          -4.2449    3.1622   -1.1373 H       1  LIG1        0.0655
     41 H          -2.2964    0.5597   -3.9471 H       1  LIG1        0.0619
     42 H          -3.9723    2.3253   -3.4557 H       1  LIG1        0.0619
     43 H           1.1336   -6.8677    2.0692 H       1  LIG1        0.0623
     44 H           1.1786   -4.3506    5.5819 H       1  LIG1        0.0623
     45 H           2.2806   -8.6326    3.3392 H       1  LIG1        0.0618
     46 H           2.3155   -6.1378    6.8337 H       1  LIG1        0.0618
     47 H           2.8792   -8.2822    5.7206 H       1  LIG1        0.0618
     48 H           1.0069    3.9305   -2.4749 H       1  LIG1        0.0660
     49 H           1.9499    2.4780   -2.8309 H       1  LIG1        0.0660
     50 H           2.4101    3.5649   -1.4631 H       1  LIG1        0.0660
     51 H          -3.7811    1.8119    2.6814 H       1  LIG1        0.0660
     52 H          -2.1107    1.2927    2.4437 H       1  LIG1        0.0660
     53 H          -3.4582    0.4802    1.5640 H       1  LIG1        0.0660
     54 H           6.7936   -2.5807    0.1514 H       1  LIG1        0.0831
     55 H           7.2866    1.3749   -1.3712 H       1  LIG1        0.0831
     56 H           8.3291   -0.8409   -0.8104 H       1  LIG1        0.0648
@<TRIPOS>BOND
     1     1     4    2
     2     1     5    2
     3     1     7    1
     4     1    16    1
     5     2    13    1
     6     2    15    1
     7     3    14    1
     8     3    31    1
     9     6    18    1
    10     6    32    1
    11     7    12    1
    12     8    12   ar
    13     8    17   ar
    14     9    14   ar
    15     9    17   ar
    16    10    22   ar
    17    10    33   ar
    18    11    22   ar
    19    11    34   ar
    20    12    13   ar
    21    13    14   ar
    22    15    18   ar
    23    15    21   ar
    24    16    19    2
    25    17    22    1
    26    18    23   ar
    27    19    20    1
    28    20    26   ar
    29    20    27   ar
    30    21    24   ar
    31    23    25   ar
    32    24    25   ar
    33    26    28   ar
    34    27    29   ar
    35    28    30   ar
    36    29    30   ar
    37    33    35   ar
    38    34    35   ar
    39     7    36    1
    40    16    37    1
    41    19    38    1
    42    21    39    1
    43    23    40    1
    44    24    41    1
    45    25    42    1
    46    26    43    1
    47    27    44    1
    48    28    45    1
    49    29    46    1
    50    30    47    1
    51    31    48    1
    52    31    49    1
    53    31    50    1
    54    32    51    1
    55    32    52    1
    56    32    53    1
    57    33    54    1
    58    34    55    1
    59    35    56    1
@<TRIPOS>MOLECULE
9957262
 56 59 0 0 0
SMALL
GASTEIGER

@<TRIPOS>ATOM
      1 S          -0.2577   -2.7966    0.8556 S.O2    1  LIG1        0.0668
      2 O          -0.9485    0.6543    0.4906 O.3     1  LIG1       -0.4435
      3 O           0.6889    2.5448   -0.8875 O.3     1  LIG1       -0.4771
      4 O           0.5635   -3.0418   -0.3099 O.2     1  LIG1       -0.1505
      5 O          -1.6701   -2.5080    0.7047 O.2     1  LIG1       -0.1505
      6 O          -2.9835    2.3000    0.9453 O.3     1  LIG1       -0.4914
      7 N           0.3494   -1.4734    1.7267 N.pl3   1  LIG1       -0.1968
      8 N           2.3650   -0.7866    0.8155 N.ar    1  LIG1       -0.2044
      9 N           2.5490    1.1695   -0.5324 N.ar    1  LIG1       -0.1867
     10 N           5.1033    0.3237   -1.2817 N.ar    1  LIG1       -0.2331
     11 N           5.1899   -0.9601    0.7316 N.ar    1  LIG1       -0.2331
     12 C           1.0535   -0.5305    0.9184 C.ar    1  LIG1        0.1883
     13 C           0.3980    0.5153    0.2999 C.ar    1  LIG1        0.2307
     14 C           1.2294    1.3814   -0.3775 C.ar    1  LIG1        0.2639
     15 C          -1.7333    1.0044   -0.5902 C.ar    1  LIG1        0.1702
     16 C          -0.0643   -4.1232    1.9581 C.2     1  LIG1        0.0729
     17 C           3.0759    0.0680    0.0506 C.ar    1  LIG1        0.2027
     18 C          -2.8073    1.8733   -0.3472 C.ar    1  LIG1        0.1621
     19 C          -1.0438   -5.0314    2.0792 C.2     1  LIG1       -0.0353
     20 C          -0.9502   -6.1427    3.0243 C.ar    1  LIG1       -0.0237
     21 C          -1.5306    0.4817   -1.8739 C.ar    1  LIG1       -0.0157
     22 C           4.5241   -0.2051   -0.1745 C.ar    1  LIG1        0.1978
     23 C          -3.6034    2.2981   -1.4152 C.ar    1  LIG1       -0.0163
     24 C          -2.3402    0.8985   -2.9307 C.ar    1  LIG1       -0.0581
     25 C          -3.3645    1.8163   -2.7044 C.ar    1  LIG1       -0.0581
     26 C          -0.1596   -7.2615    2.7429 C.ar    1  LIG1       -0.0546
     27 C          -1.6698   -6.0917    4.2235 C.ar    1  LIG1       -0.0546
     28 C          -0.0935   -8.3205    3.6517 C.ar    1  LIG1       -0.0612
     29 C          -1.5985   -7.1492    5.1326 C.ar    1  LIG1       -0.0612
     30 C          -0.8118   -8.2637    4.8457 C.ar    1  LIG1       -0.0617
     31 C           1.6279    3.3716   -1.5657 C.3     1  LIG1        0.0805
     32 C          -4.3404    2.5085    1.3241 C.3     1  LIG1        0.0790
     33 C           6.4063    0.0557   -1.4746 C.ar    1  LIG1        0.0315
     34 C           6.4946   -1.1843    0.4894 C.ar    1  LIG1        0.0315
     35 C           7.1607   -0.6990   -0.6107 C.ar    1  LIG1       -0.0254
     36 H          -0.4685   -1.0242    2.1452 H       1  LIG1        0.1753
     37 H           0.8550   -4.1609    2.5244 H       1  LIG1        0.0838
     38 H          -1.9656   -4.9695    1.5051 H       1  LIG1        0.0637
     39 H          -0.7447   -0.2434   -2.0679 H       1  LIG1        0.0655
     40 H          -4.4030    3.0172   -1.2705 H       1  LIG1        0.0655
     41 H          -2.1666    0.5116   -3.9318 H       1  LIG1        0.0619
     42 H          -3.9823    2.1543   -3.5329 H       1  LIG1        0.0619
     43 H           0.4009   -7.3218    1.8129 H       1  LIG1        0.0623
     44 H          -2.2905   -5.2299    4.4580 H       1  LIG1        0.0623
     45 H           0.5160   -9.1921    3.4261 H       1  LIG1        0.0618
     46 H          -2.1593   -7.1043    6.0627 H       1  LIG1        0.0618
     47 H          -0.7603   -9.0889    5.5514 H       1  LIG1        0.0618
     48 H           1.0901    4.2493   -1.9373 H       1  LIG1        0.0660
     49 H           2.0613    2.8561   -2.4295 H       1  LIG1        0.0660
     50 H           2.4089    3.7247   -0.8835 H       1  LIG1        0.0660
     51 H          -4.3838    2.5192    2.4173 H       1  LIG1        0.0660
     52 H          -4.9916    1.6995    0.9740 H       1  LIG1        0.0660
     53 H          -4.6955    3.4794    0.9655 H       1  LIG1        0.0660
     54 H           6.8381    0.4802   -2.3763 H       1  LIG1        0.0831
     55 H           7.0057   -1.7887    1.2334 H       1  LIG1        0.0831
     56 H           8.2080   -0.8990   -0.7846 H       1  LIG1        0.0648
@<TRIPOS>BOND
     1     1     4    2
     2     1     5    2
     3     1     7    1
     4     1    16    1
     5     2    13    1
     6     2    15    1
     7     3    14    1
     8     3    31    1
     9     6    18    1
    10     6    32    1
    11     7    12    1
    12     8    12   ar
    13     8    17   ar
    14     9    14   ar
    15     9    17   ar
    16    10    22   ar
    17    10    33   ar
    18    11    22   ar
    19    11    34   ar
    20    12    13   ar
    21    13    14   ar
    22    15    18   ar
    23    15    21   ar
    24    16    19    2
    25    17    22    1
    26    18    23   ar
    27    19    20    1
    28    20    26   ar
    29    20    27   ar
    30    21    24   ar
    31    23    25   ar
    32    24    25   ar
    33    26    28   ar
    34    27    29   ar
    35    28    30   ar
    36    29    30   ar
    37    33    35   ar
    38    34    35   ar
    39     7    36    1
    40    16    37    1
    41    19    38    1
    42    21    39    1
    43    23    40    1
    44    24    41    1
    45    25    42    1
    46    26    43    1
    47    27    44    1
    48    28    45    1
    49    29    46    1
    50    30    47    1
    51    31    48    1
    52    31    49    1
    53    31    50    1
    54    32    51    1
    55    32    52    1
    56    32    53    1
    57    33    54    1
    58    34    55    1
    59    35    56    1
@<TRIPOS>MOLECULE
9957262
 56 59 0 0 0
SMALL
GASTEIGER

@<TRIPOS>ATOM
      1 S          -0.1807   -2.7859    0.9389 S.O2    1  LIG1        0.0668
      2 O          -0.9286    0.6757    0.4841 O.3     1  LIG1       -0.4435
      3 O           0.7075    2.5495   -0.9398 O.3     1  LIG1       -0.4771
      4 O           0.6442   -3.0473   -0.2204 O.2     1  LIG1       -0.1505
      5 O          -1.6051   -2.5654    0.7814 O.2     1  LIG1       -0.1505
      6 O          -2.7669    2.5067    0.9559 O.3     1  LIG1       -0.4914
      7 N           0.3745   -1.4085    1.7583 N.pl3   1  LIG1       -0.1968
      8 N           2.3899   -0.7464    0.8261 N.ar    1  LIG1       -0.2044
      9 N           2.5662    1.1794   -0.5648 N.ar    1  LIG1       -0.1867
     10 N           5.2108   -0.9360    0.7198 N.ar    1  LIG1       -0.2331
     11 N           5.1167    0.3289   -1.3053 N.ar    1  LIG1       -0.2331
     12 C           1.0773   -0.4888    0.9256 C.ar    1  LIG1        0.1883
     13 C           0.4186    0.5420    0.2865 C.ar    1  LIG1        0.2307
     14 C           1.2467    1.3945   -0.4103 C.ar    1  LIG1        0.2639
     15 C          -1.7097    1.0739   -0.5822 C.ar    1  LIG1        0.1702
     16 C           0.0166   -4.0709    2.0872 C.2     1  LIG1        0.0729
     17 C           3.0954    0.0907    0.0388 C.ar    1  LIG1        0.2027
     18 C          -2.6860    2.0533   -0.3358 C.ar    1  LIG1        0.1621
     19 C           1.2373   -4.3338    2.5789 C.2     1  LIG1       -0.0353
     20 C           1.5135   -5.3529    3.6026 C.ar    1  LIG1       -0.0237
     21 C          -1.5784    0.5004   -1.8535 C.ar    1  LIG1       -0.0157
     22 C           4.5424   -0.1879   -0.1900 C.ar    1  LIG1        0.1978
     23 C          -3.4817    2.4961   -1.3961 C.ar    1  LIG1       -0.0163
     24 C          -2.3744    0.9555   -2.9030 C.ar    1  LIG1       -0.0581
     25 C          -3.3177    1.9561   -2.6762 C.ar    1  LIG1       -0.0581
     26 C           2.6021   -5.1584    4.4644 C.ar    1  LIG1       -0.0546
     27 C           0.7598   -6.5276    3.7306 C.ar    1  LIG1       -0.0546
     28 C           2.9123   -6.1008    5.4488 C.ar    1  LIG1       -0.0612
     29 C           1.0696   -7.4700    4.7161 C.ar    1  LIG1       -0.0612
     30 C           2.1435   -7.2547    5.5766 C.ar    1  LIG1       -0.0617
     31 C           1.6537    3.3849   -1.5965 C.3     1  LIG1        0.0805
     32 C          -3.7458    3.4965    1.2378 C.3     1  LIG1        0.0790
     33 C           6.5137   -1.1664    0.4722 C.ar    1  LIG1        0.0315
     34 C           6.4182    0.0553   -1.5030 C.ar    1  LIG1        0.0315
     35 C           7.1745   -0.6935   -0.6359 C.ar    1  LIG1       -0.0254
     36 H          -0.4587   -0.9617    2.1468 H       1  LIG1        0.1753
     37 H          -0.8811   -4.5901    2.3867 H       1  LIG1        0.0838
     38 H           2.0948   -3.7479    2.2457 H       1  LIG1        0.0637
     39 H          -0.8579   -0.2917   -2.0387 H       1  LIG1        0.0655
     40 H          -4.2378    3.2623   -1.2629 H       1  LIG1        0.0655
     41 H          -2.2588    0.5298   -3.8966 H       1  LIG1        0.0619
     42 H          -3.9353    2.3128   -3.4969 H       1  LIG1        0.0619
     43 H           3.2160   -4.2634    4.3836 H       1  LIG1        0.0623
     44 H          -0.0720   -6.7344    3.0624 H       1  LIG1        0.0623
     45 H           3.7550   -5.9319    6.1142 H       1  LIG1        0.0618
     46 H           0.4741   -8.3748    4.8073 H       1  LIG1        0.0618
     47 H           2.3842   -7.9881    6.3419 H       1  LIG1        0.0618
     48 H           1.1170    4.2601   -1.9754 H       1  LIG1        0.0660
     49 H           2.1079    2.8755   -2.4531 H       1  LIG1        0.0660
     50 H           2.4182    3.7413   -0.8975 H       1  LIG1        0.0660
     51 H          -3.6946    3.7204    2.3077 H       1  LIG1        0.0660
     52 H          -4.7554    3.1304    1.0240 H       1  LIG1        0.0660
     53 H          -3.5350    4.4222    0.6928 H       1  LIG1        0.0660
     54 H           7.0274   -1.7652    1.2187 H       1  LIG1        0.0831
     55 H           6.8459    0.4702   -2.4111 H       1  LIG1        0.0831
     56 H           8.2207   -0.8980   -0.8146 H       1  LIG1        0.0648
@<TRIPOS>BOND
     1     1     4    2
     2     1     5    2
     3     1     7    1
     4     1    16    1
     5     2    13    1
     6     2    15    1
     7     3    14    1
     8     3    31    1
     9     6    18    1
    10     6    32    1
    11     7    12    1
    12     8    12   ar
    13     8    17   ar
    14     9    14   ar
    15     9    17   ar
    16    10    22   ar
    17    10    33   ar
    18    11    22   ar
    19    11    34   ar
    20    12    13   ar
    21    13    14   ar
    22    15    18   ar
    23    15    21   ar
    24    16    19    2
    25    17    22    1
    26    18    23   ar
    27    19    20    1
    28    20    26   ar
    29    20    27   ar
    30    21    24   ar
    31    23    25   ar
    32    24    25   ar
    33    26    28   ar
    34    27    29   ar
    35    28    30   ar
    36    29    30   ar
    37    33    35   ar
    38    34    35   ar
    39     7    36    1
    40    16    37    1
    41    19    38    1
    42    21    39    1
    43    23    40    1
    44    24    41    1
    45    25    42    1
    46    26    43    1
    47    27    44    1
    48    28    45    1
    49    29    46    1
    50    30    47    1
    51    31    48    1
    52    31    49    1
    53    31    50    1
    54    32    51    1
    55    32    52    1
    56    32    53    1
    57    33    54    1
    58    34    55    1
    59    35    56    1
@<TRIPOS>MOLECULE
9957262
 56 59 0 0 0
SMALL
GASTEIGER

@<TRIPOS>ATOM
      1 S          -0.2432   -2.8030    1.0301 S.O2    1  LIG1        0.0668
      2 O          -0.9393    0.6260    0.4013 O.3     1  LIG1       -0.4435
      3 O           0.7124    2.5277   -0.9712 O.3     1  LIG1       -0.4771
      4 O          -0.0029   -2.7622   -0.3939 O.2     1  LIG1       -0.1505
      5 O          -1.6056   -2.8897    1.5278 O.2     1  LIG1       -0.1505
      6 O          -2.9718    2.2405    0.9185 O.3     1  LIG1       -0.4914
      7 N           0.3647   -1.3981    1.7453 N.pl3   1  LIG1       -0.1968
      8 N           2.3794   -0.8136    0.7290 N.ar    1  LIG1       -0.2044
      9 N           2.5629    1.1532   -0.6112 N.ar    1  LIG1       -0.1867
     10 N           5.0204   -1.4601   -0.1109 N.ar    1  LIG1       -0.2331
     11 N           5.3152    0.8518   -0.6333 N.ar    1  LIG1       -0.2331
     12 C           1.0741   -0.5307    0.8635 C.ar    1  LIG1        0.1883
     13 C           0.4149    0.5068    0.2318 C.ar    1  LIG1        0.2307
     14 C           1.2435    1.3602   -0.4634 C.ar    1  LIG1        0.2639
     15 C          -1.7010    1.0514   -0.6716 C.ar    1  LIG1        0.1702
     16 C           0.6741   -4.1060    1.7225 C.2     1  LIG1        0.0729
     17 C           3.0899    0.0483   -0.0342 C.ar    1  LIG1        0.2027
     18 C          -2.7580    1.9359   -0.4017 C.ar    1  LIG1        0.1621
     19 C           0.5176   -4.3938    3.0258 C.2     1  LIG1       -0.0353
     20 C           1.1803   -5.4778    3.7749 C.ar    1  LIG1       -0.0237
     21 C          -1.4611    0.6144   -1.9827 C.ar    1  LIG1       -0.0157
     22 C           4.5447   -0.2014   -0.2584 C.ar    1  LIG1        0.1978
     23 C          -3.4942    2.4572   -1.4707 C.ar    1  LIG1       -0.0163
     24 C          -2.1962    1.1486   -3.0394 C.ar    1  LIG1       -0.0581
     25 C          -3.2007    2.0788   -2.7845 C.ar    1  LIG1       -0.0581
     26 C           0.9356   -5.5788    5.1547 C.ar    1  LIG1       -0.0546
     27 C           2.0273   -6.4248    3.1844 C.ar    1  LIG1       -0.0546
     28 C           1.5258   -6.5883    5.9217 C.ar    1  LIG1       -0.0612
     29 C           2.6182   -7.4356    3.9514 C.ar    1  LIG1       -0.0612
     30 C           2.3687   -7.5165    5.3190 C.ar    1  LIG1       -0.0617
     31 C           1.5060    3.1129   -1.9969 C.3     1  LIG1        0.0805
     32 C          -4.1582    2.9605    1.2272 C.3     1  LIG1        0.0790
     33 C           6.3313   -1.6432   -0.3598 C.ar    1  LIG1        0.0315
     34 C           6.6182    0.6086   -0.8575 C.ar    1  LIG1        0.0315
     35 C           7.1860   -0.6350   -0.7372 C.ar    1  LIG1       -0.0254
     36 H          -0.4403   -0.9225    2.1575 H       1  LIG1        0.1753
     37 H           1.3223   -4.6428    1.0483 H       1  LIG1        0.0838
     38 H          -0.1703   -3.7880    3.6159 H       1  LIG1        0.0637
     39 H          -0.6874   -0.1186   -2.1963 H       1  LIG1        0.0655
     40 H          -4.2945    3.1732   -1.3173 H       1  LIG1        0.0655
     41 H          -1.9787    0.8456   -4.0604 H       1  LIG1        0.0619
     42 H          -3.7648    2.5068   -3.6097 H       1  LIG1        0.0619
     43 H           0.2786   -4.8697    5.6543 H       1  LIG1        0.0623
     44 H           2.2449   -6.4012    2.1209 H       1  LIG1        0.0623
     45 H           1.3248   -6.6474    6.9884 H       1  LIG1        0.0618
     46 H           3.2739   -8.1615    3.4771 H       1  LIG1        0.0618
     47 H           2.8289   -8.3020    5.9126 H       1  LIG1        0.0618
     48 H           0.9159    3.9120   -2.4561 H       1  LIG1        0.0660
     49 H           1.7468    2.3874   -2.7823 H       1  LIG1        0.0660
     50 H           2.4144    3.5605   -1.5818 H       1  LIG1        0.0660
     51 H          -4.2501    3.0044    2.3167 H       1  LIG1        0.0660
     52 H          -5.0493    2.4537    0.8407 H       1  LIG1        0.0660
     53 H          -4.0955    3.9882    0.8558 H       1  LIG1        0.0660
     54 H           6.6861   -2.6634   -0.2444 H       1  LIG1        0.0831
     55 H           7.2082    1.4734   -1.1477 H       1  LIG1        0.0831
     56 H           8.2358   -0.8084   -0.9275 H       1  LIG1        0.0648
@<TRIPOS>BOND
     1     1     4    2
     2     1     5    2
     3     1     7    1
     4     1    16    1
     5     2    13    1
     6     2    15    1
     7     3    14    1
     8     3    31    1
     9     6    18    1
    10     6    32    1
    11     7    12    1
    12     8    12   ar
    13     8    17   ar
    14     9    14   ar
    15     9    17   ar
    16    10    22   ar
    17    10    33   ar
    18    11    22   ar
    19    11    34   ar
    20    12    13   ar
    21    13    14   ar
    22    15    18   ar
    23    15    21   ar
    24    16    19    2
    25    17    22    1
    26    18    23   ar
    27    19    20    1
    28    20    26   ar
    29    20    27   ar
    30    21    24   ar
    31    23    25   ar
    32    24    25   ar
    33    26    28   ar
    34    27    29   ar
    35    28    30   ar
    36    29    30   ar
    37    33    35   ar
    38    34    35   ar
    39     7    36    1
    40    16    37    1
    41    19    38    1
    42    21    39    1
    43    23    40    1
    44    24    41    1
    45    25    42    1
    46    26    43    1
    47    27    44    1
    48    28    45    1
    49    29    46    1
    50    30    47    1
    51    31    48    1
    52    31    49    1
    53    31    50    1
    54    32    51    1
    55    32    52    1
    56    32    53    1
    57    33    54    1
    58    34    55    1
    59    35    56    1
@<TRIPOS>MOLECULE
9957262
 56 59 0 0 0
SMALL
GASTEIGER

@<TRIPOS>ATOM
      1 S          -0.2871   -2.7779    0.9408 S.O2    1  LIG1        0.0668
      2 O          -0.9938    0.6954    0.4398 O.3     1  LIG1       -0.4435
      3 O           0.6736    2.5376   -0.9670 O.3     1  LIG1       -0.4771
      4 O          -0.5646   -2.4332   -0.4385 O.2     1  LIG1       -0.1505
      5 O          -1.3426   -3.2967    1.7887 O.2     1  LIG1       -0.1505
      6 O          -2.9695    2.4477    0.8697 O.3     1  LIG1       -0.4914
      7 N           0.3140   -1.4137    1.7428 N.pl3   1  LIG1       -0.1968
      8 N           2.3150   -0.7687    0.8257 N.ar    1  LIG1       -0.2044
      9 N           2.5184    1.1562   -0.5654 N.ar    1  LIG1       -0.1867
     10 N           5.0885    0.3198   -1.2474 N.ar    1  LIG1       -0.2331
     11 N           5.1168   -1.0161    0.7331 N.ar    1  LIG1       -0.2331
     12 C           1.0051   -0.4961    0.9089 C.ar    1  LIG1        0.1883
     13 C           0.3522    0.5341    0.2594 C.ar    1  LIG1        0.2307
     14 C           1.1968    1.3803   -0.4275 C.ar    1  LIG1        0.2639
     15 C          -1.7669    1.0671   -0.6413 C.ar    1  LIG1        0.1702
     16 C           1.0359   -3.9131    0.9482 C.2     1  LIG1        0.0729
     17 C           3.0358    0.0700    0.0487 C.ar    1  LIG1        0.2027
     18 C          -2.8078    1.9765   -0.4090 C.ar    1  LIG1        0.1621
     19 C           1.1608   -4.7762    1.9700 C.2     1  LIG1       -0.0353
     20 C           2.1958   -5.8158    2.1168 C.ar    1  LIG1       -0.0237
     21 C          -1.5909    0.5230   -1.9196 C.ar    1  LIG1       -0.0157
     22 C           4.4836   -0.2192   -0.1604 C.ar    1  LIG1        0.1978
     23 C          -3.5962    2.4159   -1.4772 C.ar    1  LIG1       -0.0163
     24 C          -2.3926    0.9524   -2.9784 C.ar    1  LIG1       -0.0581
     25 C          -3.3841    1.9074   -2.7602 C.ar    1  LIG1       -0.0581
     26 C           3.2155   -6.0361    1.1816 C.ar    1  LIG1       -0.0546
     27 C           2.1479   -6.6416    3.2519 C.ar    1  LIG1       -0.0546
     28 C           4.1560   -7.0542    1.3744 C.ar    1  LIG1       -0.0612
     29 C           3.0880   -7.6575    3.4457 C.ar    1  LIG1       -0.0612
     30 C           4.0921   -7.8643    2.5052 C.ar    1  LIG1       -0.0617
     31 C           1.6349    3.3749   -1.5982 C.3     1  LIG1        0.0805
     32 C          -4.3305    2.4999    1.2891 C.3     1  LIG1        0.0790
     33 C           6.3908    0.0357   -1.4241 C.ar    1  LIG1        0.0315
     34 C           6.4235   -1.2528    0.5108 C.ar    1  LIG1        0.0315
     35 C           7.1171   -0.7505   -0.5642 C.ar    1  LIG1       -0.0254
     36 H           0.9102   -1.6992    2.5167 H       1  LIG1        0.1753
     37 H           1.6996   -3.8672    0.0994 H       1  LIG1        0.0838
     38 H           0.4275   -4.7501    2.7768 H       1  LIG1        0.0637
     39 H          -0.8346   -0.2347   -2.1040 H       1  LIG1        0.0655
     40 H          -4.3667    3.1658   -1.3308 H       1  LIG1        0.0655
     41 H          -2.2391    0.5430   -3.9735 H       1  LIG1        0.0619
     42 H          -3.9960    2.2535   -3.5892 H       1  LIG1        0.0619
     43 H           3.3005   -5.4299    0.2846 H       1  LIG1        0.0623
     44 H           1.3701   -6.5089    4.0018 H       1  LIG1        0.0623
     45 H           4.9374   -7.2158    0.6361 H       1  LIG1        0.0618
     46 H           3.0310   -8.2881    4.3294 H       1  LIG1        0.0618
     47 H           4.8212   -8.6568    2.6515 H       1  LIG1        0.0618
     48 H           1.1094    4.2556   -1.9798 H       1  LIG1        0.0660
     49 H           2.1031    2.8707   -2.4504 H       1  LIG1        0.0660
     50 H           2.3882    3.7221   -0.8825 H       1  LIG1        0.0660
     51 H          -4.3434    2.5143    2.3831 H       1  LIG1        0.0660
     52 H          -4.8975    1.6211    0.9603 H       1  LIG1        0.0660
     53 H          -4.8049    3.4209    0.9362 H       1  LIG1        0.0660
     54 H           6.8453    0.4750   -2.3076 H       1  LIG1        0.0831
     55 H           6.9129   -1.8809    1.2498 H       1  LIG1        0.0831
     56 H           8.1656   -0.9596   -0.7233 H       1  LIG1        0.0648
@<TRIPOS>BOND
     1     1     4    2
     2     1     5    2
     3     1     7    1
     4     1    16    1
     5     2    13    1
     6     2    15    1
     7     3    14    1
     8     3    31    1
     9     6    18    1
    10     6    32    1
    11     7    12    1
    12     8    12   ar
    13     8    17   ar
    14     9    14   ar
    15     9    17   ar
    16    10    22   ar
    17    10    33   ar
    18    11    22   ar
    19    11    34   ar
    20    12    13   ar
    21    13    14   ar
    22    15    18   ar
    23    15    21   ar
    24    16    19    2
    25    17    22    1
    26    18    23   ar
    27    19    20    1
    28    20    26   ar
    29    20    27   ar
    30    21    24   ar
    31    23    25   ar
    32    24    25   ar
    33    26    28   ar
    34    27    29   ar
    35    28    30   ar
    36    29    30   ar
    37    33    35   ar
    38    34    35   ar
    39     7    36    1
    40    16    37    1
    41    19    38    1
    42    21    39    1
    43    23    40    1
    44    24    41    1
    45    25    42    1
    46    26    43    1
    47    27    44    1
    48    28    45    1
    49    29    46    1
    50    30    47    1
    51    31    48    1
    52    31    49    1
    53    31    50    1
    54    32    51    1
    55    32    52    1
    56    32    53    1
    57    33    54    1
    58    34    55    1
    59    35    56    1
