@<TRIPOS>MOLECULE
9871593
 62 65 0 0 0
SMALL
GASTEIGER

@<TRIPOS>ATOM
      1 O          11.4118   -0.8028   -2.3604 O.3     1  LIG1       -0.4526
      2 O          12.1630    1.2301   -1.3009 O.3     1  LIG1       -0.4526
      3 O           5.3229    4.8832    2.0143 O.3     1  LIG1       -0.4913
      4 O           7.0746    1.8933    5.2911 O.3     1  LIG1       -0.4913
      5 O           6.2572    4.2693    4.6934 O.3     1  LIG1       -0.4885
      6 O           5.3323   -3.0760    0.6242 O.2     1  LIG1       -0.2870
      7 O           7.9472   -3.0588    2.9101 O.co2   1  LIG1       -0.5446
      8 O           8.9912   -3.7653    0.9965 O.co2   1  LIG1       -0.5446
      9 O           1.5822   -1.0914    5.1977 O.3     1  LIG1       -0.4951
     10 C           6.2414    0.2223    0.6379 C.3     1  LIG1        0.0021
     11 C           6.6765   -1.1529    1.0710 C.2     1  LIG1        0.0135
     12 C           6.1947    1.2824    1.7326 C.ar    1  LIG1       -0.0358
     13 C           7.9498   -1.6109    1.0486 C.2     1  LIG1        0.0117
     14 C           9.0946   -0.8555    0.5044 C.ar    1  LIG1       -0.0121
     15 C           5.5698   -2.1234    1.3626 C.2     1  LIG1        0.1901
     16 C           6.6053    1.0444    3.0505 C.ar    1  LIG1       -0.0126
     17 C           5.7677    2.5754    1.3966 C.ar    1  LIG1       -0.0126
     18 C           9.6946   -1.2835   -0.6917 C.ar    1  LIG1       -0.0084
     19 C          10.7208   -0.5278   -1.2201 C.ar    1  LIG1        0.1668
     20 C           9.5652    0.3230    1.1249 C.ar    1  LIG1       -0.0503
     21 C          11.1517    0.6299   -0.6159 C.ar    1  LIG1        0.1663
     22 C           5.7635    3.6235    2.3344 C.ar    1  LIG1        0.1654
     23 C           6.6329    2.0728    3.9982 C.ar    1  LIG1        0.1654
     24 C           4.5916   -1.7964    2.4171 C.ar    1  LIG1        0.0222
     25 C           6.1968    3.3716    3.6523 C.ar    1  LIG1        0.2035
     26 C          10.5924    1.0855    0.5564 C.ar    1  LIG1       -0.0156
     27 C           8.3175   -2.9624    1.6997 C.2     1  LIG1        0.0726
     28 C          12.3681    0.2727   -2.3599 C.3     1  LIG1        0.2332
     29 C           3.4483   -1.0614    2.0859 C.ar    1  LIG1       -0.0475
     30 C           4.7438   -2.3203    3.7016 C.ar    1  LIG1       -0.0475
     31 C           2.4741   -0.8196    3.0537 C.ar    1  LIG1       -0.0193
     32 C           3.7509   -2.0963    4.6635 C.ar    1  LIG1       -0.0193
     33 C           2.6093   -1.3599    4.3329 C.ar    1  LIG1        0.1201
     34 C           5.2351    5.2213    0.6361 C.3     1  LIG1        0.0790
     35 C           7.9080    0.7618    5.5275 C.3     1  LIG1        0.0790
     36 C           6.0941    5.6515    4.4361 C.3     1  LIG1        0.0791
     37 C           1.2177   -2.1947    6.0211 C.3     1  LIG1        0.0788
     38 H           5.2538    0.1647    0.1642 H       1  LIG1        0.0363
     39 H           6.9070    0.5918   -0.1527 H       1  LIG1        0.0363
     40 H           6.9259    0.0449    3.3325 H       1  LIG1        0.0658
     41 H           5.4347    2.7387    0.3763 H       1  LIG1        0.0658
     42 H           9.3721   -2.2010   -1.1758 H       1  LIG1        0.0661
     43 H           9.1295    0.6519    2.0629 H       1  LIG1        0.0625
     44 H          10.9386    1.9964    1.0288 H       1  LIG1        0.0655
     45 H          12.3060    0.7960   -3.3209 H       1  LIG1        0.1166
     46 H          13.3751   -0.1499   -2.2582 H       1  LIG1        0.1166
     47 H           3.3042   -0.6926    1.0755 H       1  LIG1        0.0626
     48 H           5.6234   -2.9153    3.9453 H       1  LIG1        0.0626
     49 H           1.5920   -0.2384    2.8017 H       1  LIG1        0.0654
     50 H           3.8939   -2.5021    5.6596 H       1  LIG1        0.0654
     51 H           5.0700    6.3009    0.5687 H       1  LIG1        0.0660
     52 H           4.3785    4.7256    0.1686 H       1  LIG1        0.0660
     53 H           6.1656    4.9958    0.1039 H       1  LIG1        0.0660
     54 H           8.3543    0.8801    6.5198 H       1  LIG1        0.0660
     55 H           8.7285    0.7053    4.8033 H       1  LIG1        0.0660
     56 H           7.3198   -0.1610    5.5358 H       1  LIG1        0.0660
     57 H           6.3401    6.1890    5.3578 H       1  LIG1        0.0660
     58 H           5.0522    5.8864    4.1990 H       1  LIG1        0.0660
     59 H           6.7849    6.0065    3.6647 H       1  LIG1        0.0660
     60 H           0.2312   -1.9801    6.4446 H       1  LIG1        0.0660
     61 H           1.9194   -2.3107    6.8521 H       1  LIG1        0.0660
     62 H           1.1357   -3.1223    5.4431 H       1  LIG1        0.0660
@<TRIPOS>BOND
     1     1    19    1
     2     1    28    1
     3     2    28    1
     4     2    21    1
     5     3    22    1
     6     3    34    1
     7     4    23    1
     8     4    35    1
     9     5    25    1
    10     5    36    1
    11     6    15    2
    12     7    27   ar
    13     8    27   ar
    14     9    33    1
    15     9    37    1
    16    10    11    1
    17    10    12    1
    18    11    13    2
    19    11    15    1
    20    12    16   ar
    21    12    17   ar
    22    13    14    1
    23    13    27    1
    24    14    20   ar
    25    14    18   ar
    26    15    24    1
    27    16    23   ar
    28    17    22   ar
    29    18    19   ar
    30    19    21   ar
    31    20    26   ar
    32    21    26   ar
    33    22    25   ar
    34    23    25   ar
    35    24    29   ar
    36    24    30   ar
    37    29    31   ar
    38    30    32   ar
    39    31    33   ar
    40    32    33   ar
    41    10    38    1
    42    10    39    1
    43    16    40    1
    44    17    41    1
    45    18    42    1
    46    20    43    1
    47    26    44    1
    48    28    45    1
    49    28    46    1
    50    29    47    1
    51    30    48    1
    52    31    49    1
    53    32    50    1
    54    34    51    1
    55    34    52    1
    56    34    53    1
    57    35    54    1
    58    35    55    1
    59    35    56    1
    60    36    57    1
    61    36    58    1
    62    36    59    1
    63    37    60    1
    64    37    61    1
    65    37    62    1
@<TRIPOS>MOLECULE
9871593
 62 65 0 0 0
SMALL
GASTEIGER

@<TRIPOS>ATOM
      1 O          12.6669    0.1124    0.6958 O.3     1  LIG1       -0.4526
      2 O          12.3773    1.0909   -1.4889 O.3     1  LIG1       -0.4526
      3 O           2.7521    2.9041    2.4228 O.3     1  LIG1       -0.4913
      4 O           6.7075    2.4024    5.2264 O.3     1  LIG1       -0.4913
      5 O           4.1311    3.6230    4.7464 O.3     1  LIG1       -0.4885
      6 O           4.6585   -2.1095    1.4168 O.2     1  LIG1       -0.2870
      7 O           7.7711   -3.9508    0.0113 O.co2   1  LIG1       -0.5446
      8 O           9.4209   -3.5457    1.5490 O.co2   1  LIG1       -0.5446
      9 O           7.5064   -6.0264    5.5464 O.3     1  LIG1       -0.4951
     10 C           6.3425    0.1109    0.8221 C.3     1  LIG1        0.0021
     11 C           6.8728   -1.2701    1.1324 C.2     1  LIG1        0.0135
     12 C           5.7525    0.9202    1.9601 C.ar    1  LIG1       -0.0358
     13 C           8.0958   -1.7209    0.7619 C.2     1  LIG1        0.0117
     14 C           9.1749   -0.9181    0.1531 C.ar    1  LIG1       -0.0121
     15 C           5.8472   -2.1985    1.7323 C.2     1  LIG1        0.1901
     16 C           6.4868    1.2134    3.1140 C.ar    1  LIG1       -0.0126
     17 C           4.4930    1.5063    1.8059 C.ar    1  LIG1       -0.0126
     18 C          10.3954   -0.7661    0.8315 C.ar    1  LIG1       -0.0084
     19 C          11.4121   -0.0795    0.2043 C.ar    1  LIG1        0.1668
     20 C           9.0186   -0.3442   -1.1289 C.ar    1  LIG1       -0.0503
     21 C          11.2468    0.4778   -1.0419 C.ar    1  LIG1        0.1663
     22 C           3.9703    2.3686    2.7745 C.ar    1  LIG1        0.1654
     23 C           5.9899    2.0914    4.0982 C.ar    1  LIG1        0.1654
     24 C           6.2404   -3.1719    2.7873 C.ar    1  LIG1        0.0222
     25 C           4.7203    2.6936    3.9251 C.ar    1  LIG1        0.2035
     26 C          10.0573    0.3769   -1.7296 C.ar    1  LIG1       -0.0156
     27 C           8.4753   -3.2290    0.7733 C.2     1  LIG1        0.0726
     28 C          13.2980    0.7435   -0.4335 C.3     1  LIG1        0.2332
     29 C           5.6304   -4.4317    2.7877 C.ar    1  LIG1       -0.0475
     30 C           7.1995   -2.8676    3.7602 C.ar    1  LIG1       -0.0475
     31 C           6.0257   -5.4060    3.7089 C.ar    1  LIG1       -0.0193
     32 C           7.5906   -3.8436    4.6822 C.ar    1  LIG1       -0.0193
     33 C           7.0305   -5.1208    4.6347 C.ar    1  LIG1        0.1201
     34 C           1.8030    3.0192    3.4764 C.3     1  LIG1        0.0790
     35 C           8.0369    1.9100    5.3368 C.3     1  LIG1        0.0790
     36 C           4.7921    4.0713    5.9154 C.3     1  LIG1        0.0791
     37 C           7.7047   -7.3272    4.9954 C.3     1  LIG1        0.0788
     38 H           5.5882   -0.0028    0.0313 H       1  LIG1        0.0363
     39 H           7.1132    0.7533    0.3845 H       1  LIG1        0.0363
     40 H           7.4688    0.7584    3.2046 H       1  LIG1        0.0658
     41 H           3.9054    1.3023    0.9124 H       1  LIG1        0.0658
     42 H          10.5584   -1.2316    1.7992 H       1  LIG1        0.0661
     43 H           8.0842   -0.4844   -1.6692 H       1  LIG1        0.0625
     44 H           9.9393    0.8120   -2.7142 H       1  LIG1        0.0655
     45 H          14.0559    0.0619   -0.8402 H       1  LIG1        0.1166
     46 H          13.7986    1.6553   -0.0903 H       1  LIG1        0.1166
     47 H           4.8856   -4.6686    2.0317 H       1  LIG1        0.0626
     48 H           7.6914   -1.9007    3.7740 H       1  LIG1        0.0626
     49 H           5.5544   -6.3813    3.6697 H       1  LIG1        0.0654
     50 H           8.3778   -3.6238    5.3970 H       1  LIG1        0.0654
     51 H           0.8063    2.9194    3.0348 H       1  LIG1        0.0660
     52 H           1.8573    4.0153    3.9261 H       1  LIG1        0.0660
     53 H           1.9088    2.2349    4.2337 H       1  LIG1        0.0660
     54 H           8.4637    2.3150    6.2594 H       1  LIG1        0.0660
     55 H           8.6597    2.2576    4.5060 H       1  LIG1        0.0660
     56 H           8.0468    0.8185    5.4179 H       1  LIG1        0.0660
     57 H           4.1424    4.8114    6.3943 H       1  LIG1        0.0660
     58 H           5.7304    4.5806    5.6753 H       1  LIG1        0.0660
     59 H           4.9288    3.2570    6.6330 H       1  LIG1        0.0660
     60 H           8.3958   -7.8663    5.6509 H       1  LIG1        0.0660
     61 H           8.1545   -7.2908    3.9961 H       1  LIG1        0.0660
     62 H           6.7616   -7.8828    4.9774 H       1  LIG1        0.0660
@<TRIPOS>BOND
     1     1    19    1
     2     1    28    1
     3     2    28    1
     4     2    21    1
     5     3    22    1
     6     3    34    1
     7     4    23    1
     8     4    35    1
     9     5    25    1
    10     5    36    1
    11     6    15    2
    12     7    27   ar
    13     8    27   ar
    14     9    33    1
    15     9    37    1
    16    10    11    1
    17    10    12    1
    18    11    13    2
    19    11    15    1
    20    12    16   ar
    21    12    17   ar
    22    13    14    1
    23    13    27    1
    24    14    20   ar
    25    14    18   ar
    26    15    24    1
    27    16    23   ar
    28    17    22   ar
    29    18    19   ar
    30    19    21   ar
    31    20    26   ar
    32    21    26   ar
    33    22    25   ar
    34    23    25   ar
    35    24    29   ar
    36    24    30   ar
    37    29    31   ar
    38    30    32   ar
    39    31    33   ar
    40    32    33   ar
    41    10    38    1
    42    10    39    1
    43    16    40    1
    44    17    41    1
    45    18    42    1
    46    20    43    1
    47    26    44    1
    48    28    45    1
    49    28    46    1
    50    29    47    1
    51    30    48    1
    52    31    49    1
    53    32    50    1
    54    34    51    1
    55    34    52    1
    56    34    53    1
    57    35    54    1
    58    35    55    1
    59    35    56    1
    60    36    57    1
    61    36    58    1
    62    36    59    1
    63    37    60    1
    64    37    61    1
    65    37    62    1
@<TRIPOS>MOLECULE
9871593
 62 65 0 0 0
SMALL
GASTEIGER

@<TRIPOS>ATOM
      1 O          11.1350    2.3174    1.2718 O.3     1  LIG1       -0.4526
      2 O          12.3587    1.6149   -0.6864 O.3     1  LIG1       -0.4526
      3 O           6.8988    1.9918    5.6903 O.3     1  LIG1       -0.4913
      4 O           3.8215    4.1819    2.6723 O.3     1  LIG1       -0.4913
      5 O           5.1311    4.0016    5.2658 O.3     1  LIG1       -0.4885
      6 O           6.6626   -2.7402    3.2725 O.2     1  LIG1       -0.2870
      7 O           7.6499   -3.8061    0.4783 O.co2   1  LIG1       -0.5446
      8 O           9.5643   -3.4043    1.6802 O.co2   1  LIG1       -0.5446
      9 O           0.5411   -1.5268    3.3196 O.3     1  LIG1       -0.4951
     10 C           6.3328    0.2153    1.1566 C.3     1  LIG1        0.0021
     11 C           6.8833   -1.1431    1.5079 C.2     1  LIG1        0.0135
     12 C           5.9648    1.1661    2.2758 C.ar    1  LIG1       -0.0358
     13 C           8.1129   -1.5781    1.1226 C.2     1  LIG1        0.0117
     14 C           9.1969   -0.7386    0.5611 C.ar    1  LIG1       -0.0121
     15 C           6.0957   -2.0414    2.4309 C.2     1  LIG1        0.1901
     16 C           5.0559    2.2021    1.9955 C.ar    1  LIG1       -0.0126
     17 C           6.5556    1.1265    3.5365 C.ar    1  LIG1       -0.0126
     18 C           9.5913    0.4325    1.2354 C.ar    1  LIG1       -0.0084
     19 C          10.6466    1.1649    0.7377 C.ar    1  LIG1        0.1668
     20 C           9.9221   -1.1337   -0.5868 C.ar    1  LIG1       -0.0503
     21 C          11.3394    0.7666   -0.3800 C.ar    1  LIG1        0.1663
     22 C           6.2573    2.1134    4.4789 C.ar    1  LIG1        0.1654
     23 C           4.7125    3.1764    2.9489 C.ar    1  LIG1        0.1654
     24 C           4.6197   -1.9145    2.5688 C.ar    1  LIG1        0.0222
     25 C           5.3298    3.1425    4.2136 C.ar    1  LIG1        0.2035
     26 C          11.0051   -0.3814   -1.0617 C.ar    1  LIG1       -0.0156
     27 C           8.4594   -3.0937    1.1513 C.2     1  LIG1        0.0726
     28 C          12.2404    2.5726    0.3855 C.3     1  LIG1        0.2332
     29 C           3.7465   -1.7466    1.4923 C.ar    1  LIG1       -0.0475
     30 C           4.0975   -2.0026    3.8712 C.ar    1  LIG1       -0.0475
     31 C           2.3719   -1.5939    1.7254 C.ar    1  LIG1       -0.0193
     32 C           2.7296   -1.8740    4.1012 C.ar    1  LIG1       -0.0193
     33 C           1.8747   -1.6352    3.0324 C.ar    1  LIG1        0.1201
     34 C           7.8480    3.0409    5.8781 C.3     1  LIG1        0.0790
     35 C           2.9706    4.0222    1.5441 C.3     1  LIG1        0.0790
     36 C           4.2858    5.1258    5.1023 C.3     1  LIG1        0.0791
     37 C           0.0072   -0.2758    2.8950 C.3     1  LIG1        0.0788
     38 H           5.4519    0.0645    0.5223 H       1  LIG1        0.0363
     39 H           7.0215    0.7632    0.5020 H       1  LIG1        0.0363
     40 H           4.6352    2.2350    0.9948 H       1  LIG1        0.0658
     41 H           7.2714    0.3489    3.7985 H       1  LIG1        0.0658
     42 H           9.1050    0.7455    2.1508 H       1  LIG1        0.0661
     43 H           9.6651   -2.0664   -1.0890 H       1  LIG1        0.0625
     44 H          11.5762   -0.7125   -1.9213 H       1  LIG1        0.0655
     45 H          13.1677    2.5641    0.9713 H       1  LIG1        0.1166
     46 H          12.1145    3.5700   -0.0518 H       1  LIG1        0.1166
     47 H           4.1209   -1.7620    0.4728 H       1  LIG1        0.0626
     48 H           4.7674   -2.1750    4.7125 H       1  LIG1        0.0626
     49 H           1.6966   -1.4762    0.8850 H       1  LIG1        0.0654
     50 H           2.3420   -1.9521    5.1122 H       1  LIG1        0.0654
     51 H           8.7106    2.6217    6.4047 H       1  LIG1        0.0660
     52 H           7.4146    3.8217    6.5103 H       1  LIG1        0.0660
     53 H           8.2075    3.4754    4.9374 H       1  LIG1        0.0660
     54 H           2.2169    4.8147    1.5822 H       1  LIG1        0.0660
     55 H           2.4438    3.0623    1.5696 H       1  LIG1        0.0660
     56 H           3.5305    4.1456    0.6117 H       1  LIG1        0.0660
     57 H           4.3126    5.6953    6.0368 H       1  LIG1        0.0660
     58 H           3.2470    4.8217    4.9430 H       1  LIG1        0.0660
     59 H           4.6503    5.7909    4.3129 H       1  LIG1        0.0660
     60 H          -0.9281   -0.1109    3.4395 H       1  LIG1        0.0660
     61 H          -0.2242   -0.2996    1.8259 H       1  LIG1        0.0660
     62 H           0.6798    0.5587    3.1263 H       1  LIG1        0.0660
@<TRIPOS>BOND
     1     1    19    1
     2     1    28    1
     3     2    28    1
     4     2    21    1
     5     3    22    1
     6     3    34    1
     7     4    23    1
     8     4    35    1
     9     5    25    1
    10     5    36    1
    11     6    15    2
    12     7    27   ar
    13     8    27   ar
    14     9    33    1
    15     9    37    1
    16    10    11    1
    17    10    12    1
    18    11    13    2
    19    11    15    1
    20    12    16   ar
    21    12    17   ar
    22    13    14    1
    23    13    27    1
    24    14    20   ar
    25    14    18   ar
    26    15    24    1
    27    16    23   ar
    28    17    22   ar
    29    18    19   ar
    30    19    21   ar
    31    20    26   ar
    32    21    26   ar
    33    22    25   ar
    34    23    25   ar
    35    24    29   ar
    36    24    30   ar
    37    29    31   ar
    38    30    32   ar
    39    31    33   ar
    40    32    33   ar
    41    10    38    1
    42    10    39    1
    43    16    40    1
    44    17    41    1
    45    18    42    1
    46    20    43    1
    47    26    44    1
    48    28    45    1
    49    28    46    1
    50    29    47    1
    51    30    48    1
    52    31    49    1
    53    32    50    1
    54    34    51    1
    55    34    52    1
    56    34    53    1
    57    35    54    1
    58    35    55    1
    59    35    56    1
    60    36    57    1
    61    36    58    1
    62    36    59    1
    63    37    60    1
    64    37    61    1
    65    37    62    1
@<TRIPOS>MOLECULE
9871593
 62 65 0 0 0
SMALL
GASTEIGER

@<TRIPOS>ATOM
      1 O          11.1311    2.3300    1.2851 O.3     1  LIG1       -0.4526
      2 O          12.3517    1.6403   -0.6797 O.3     1  LIG1       -0.4526
      3 O           6.9060    1.9640    5.6866 O.3     1  LIG1       -0.4913
      4 O           3.8299    4.1579    2.6706 O.3     1  LIG1       -0.4913
      5 O           5.1388    3.9750    5.2635 O.3     1  LIG1       -0.4885
      6 O           6.6385   -2.8458    3.2020 O.2     1  LIG1       -0.2870
      7 O           9.5820   -3.3844    1.7747 O.co2   1  LIG1       -0.5446
      8 O           7.7770   -3.8113    0.4192 O.co2   1  LIG1       -0.5446
      9 O           0.5582   -1.4903    3.3627 O.3     1  LIG1       -0.4951
     10 C           6.3374    0.1865    1.1548 C.3     1  LIG1        0.0021
     11 C           6.8942   -1.1708    1.5072 C.2     1  LIG1        0.0135
     12 C           5.9680    1.1380    2.2731 C.ar    1  LIG1       -0.0358
     13 C           8.1312   -1.5857    1.1325 C.2     1  LIG1        0.0117
     14 C           9.2100   -0.7358    0.5724 C.ar    1  LIG1       -0.0121
     15 C           6.0904   -2.0848    2.4037 C.2     1  LIG1        0.1901
     16 C           5.0605    2.1754    1.9933 C.ar    1  LIG1       -0.0126
     17 C           6.5585    1.0981    3.5344 C.ar    1  LIG1       -0.0126
     18 C           9.5977    0.4354    1.2494 C.ar    1  LIG1       -0.0084
     19 C          10.6474    1.1758    0.7493 C.ar    1  LIG1        0.1668
     20 C           9.9319   -1.1223   -0.5809 C.ar    1  LIG1       -0.0503
     21 C          11.3384    0.7854   -0.3719 C.ar    1  LIG1        0.1663
     22 C           6.2631    2.0855    4.4769 C.ar    1  LIG1        0.1654
     23 C           4.7195    3.1506    2.9469 C.ar    1  LIG1        0.1654
     24 C           4.6228   -1.9285    2.5590 C.ar    1  LIG1        0.0222
     25 C           5.3364    3.1159    4.2108 C.ar    1  LIG1        0.2035
     26 C          11.0082   -0.3622   -1.0573 C.ar    1  LIG1       -0.0156
     27 C           8.5106   -3.0938    1.1633 C.2     1  LIG1        0.0726
     28 C          12.2321    2.5940    0.3952 C.3     1  LIG1        0.2332
     29 C           3.7370   -1.7519    1.4908 C.ar    1  LIG1       -0.0475
     30 C           4.1159   -2.0014    3.8668 C.ar    1  LIG1       -0.0475
     31 C           2.3672   -1.5789    1.7416 C.ar    1  LIG1       -0.0193
     32 C           2.7529   -1.8529    4.1133 C.ar    1  LIG1       -0.0193
     33 C           1.8863   -1.6096    3.0539 C.ar    1  LIG1        0.1201
     34 C           7.8522    3.0152    5.8762 C.3     1  LIG1        0.0790
     35 C           2.9817    4.0041    1.5402 C.3     1  LIG1        0.0790
     36 C           4.2972    5.1023    5.1001 C.3     1  LIG1        0.0791
     37 C           0.0046   -0.2637    2.8942 C.3     1  LIG1        0.0788
     38 H           5.4560    0.0327    0.5211 H       1  LIG1        0.0363
     39 H           7.0229    0.7360    0.4989 H       1  LIG1        0.0363
     40 H           4.6403    2.2083    0.9928 H       1  LIG1        0.0658
     41 H           7.2744    0.3193    3.7961 H       1  LIG1        0.0658
     42 H           9.1129    0.7422    2.1670 H       1  LIG1        0.0661
     43 H           9.6763   -2.0534   -1.0867 H       1  LIG1        0.0625
     44 H          11.5763   -0.6855   -1.9208 H       1  LIG1        0.0655
     45 H          13.1612    2.5890    0.9775 H       1  LIG1        0.1166
     46 H          12.0988    3.5918   -0.0385 H       1  LIG1        0.1166
     47 H           4.0999   -1.7769    0.4654 H       1  LIG1        0.0626
     48 H           4.7942   -2.1797    4.6981 H       1  LIG1        0.0626
     49 H           1.6854   -1.4577    0.9077 H       1  LIG1        0.0654
     50 H           2.3770   -1.9206    5.1298 H       1  LIG1        0.0654
     51 H           8.7160    2.5978    6.4025 H       1  LIG1        0.0660
     52 H           7.4168    3.7941    6.5094 H       1  LIG1        0.0660
     53 H           8.2108    3.4519    4.9361 H       1  LIG1        0.0660
     54 H           2.2302    4.7989    1.5784 H       1  LIG1        0.0660
     55 H           2.4517    3.0458    1.5620 H       1  LIG1        0.0660
     56 H           3.5441    4.1280    0.6094 H       1  LIG1        0.0660
     57 H           4.3258    5.6715    6.0347 H       1  LIG1        0.0660
     58 H           3.2574    4.8020    4.9406 H       1  LIG1        0.0660
     59 H           4.6644    5.7661    4.3109 H       1  LIG1        0.0660
     60 H          -0.9238   -0.0867    3.4465 H       1  LIG1        0.0660
     61 H          -0.2436   -0.3340    1.8313 H       1  LIG1        0.0660
     62 H           0.6719    0.5856    3.0816 H       1  LIG1        0.0660
@<TRIPOS>BOND
     1     1    19    1
     2     1    28    1
     3     2    28    1
     4     2    21    1
     5     3    22    1
     6     3    34    1
     7     4    23    1
     8     4    35    1
     9     5    25    1
    10     5    36    1
    11     6    15    2
    12     7    27   ar
    13     8    27   ar
    14     9    33    1
    15     9    37    1
    16    10    11    1
    17    10    12    1
    18    11    13    2
    19    11    15    1
    20    12    16   ar
    21    12    17   ar
    22    13    14    1
    23    13    27    1
    24    14    20   ar
    25    14    18   ar
    26    15    24    1
    27    16    23   ar
    28    17    22   ar
    29    18    19   ar
    30    19    21   ar
    31    20    26   ar
    32    21    26   ar
    33    22    25   ar
    34    23    25   ar
    35    24    29   ar
    36    24    30   ar
    37    29    31   ar
    38    30    32   ar
    39    31    33   ar
    40    32    33   ar
    41    10    38    1
    42    10    39    1
    43    16    40    1
    44    17    41    1
    45    18    42    1
    46    20    43    1
    47    26    44    1
    48    28    45    1
    49    28    46    1
    50    29    47    1
    51    30    48    1
    52    31    49    1
    53    32    50    1
    54    34    51    1
    55    34    52    1
    56    34    53    1
    57    35    54    1
    58    35    55    1
    59    35    56    1
    60    36    57    1
    61    36    58    1
    62    36    59    1
    63    37    60    1
    64    37    61    1
    65    37    62    1
@<TRIPOS>MOLECULE
9871593
 62 65 0 0 0
SMALL
GASTEIGER

@<TRIPOS>ATOM
      1 O          10.9132    2.3255    1.5233 O.3     1  LIG1       -0.4526
      2 O          12.1909    1.6707   -0.4167 O.3     1  LIG1       -0.4526
      3 O           4.8794    1.4562    5.6275 O.3     1  LIG1       -0.4913
      4 O           3.4385    4.1641    1.8948 O.3     1  LIG1       -0.4913
      5 O           3.4378    3.6639    4.6454 O.3     1  LIG1       -0.4885
      6 O           6.2643   -2.6139    3.3607 O.2     1  LIG1       -0.2870
      7 O           7.5456   -3.8714    0.6715 O.co2   1  LIG1       -0.5446
      8 O           9.4064   -3.4151    1.9326 O.co2   1  LIG1       -0.5446
      9 O           0.2259   -2.3272    1.7063 O.3     1  LIG1       -0.4951
     10 C           6.1575    0.1365    1.0656 C.3     1  LIG1        0.0021
     11 C           6.7075   -1.1979    1.4982 C.2     1  LIG1        0.0135
     12 C           5.4655    1.0450    2.0617 C.ar    1  LIG1       -0.0358
     13 C           7.9711   -1.6189    1.2508 C.2     1  LIG1        0.0117
     14 C           9.0730   -0.7718    0.7470 C.ar    1  LIG1       -0.0121
     15 C           5.8361   -2.1121    2.3194 C.2     1  LIG1        0.1901
     16 C           4.7521    2.1422    1.5402 C.ar    1  LIG1       -0.0126
     17 C           5.5197    0.8903    3.4482 C.ar    1  LIG1       -0.0126
     18 C           9.4178    0.4010    1.4445 C.ar    1  LIG1       -0.0084
     19 C          10.4674    1.1622    0.9753 C.ar    1  LIG1        0.1668
     20 C           9.8292   -1.1420   -0.3878 C.ar    1  LIG1       -0.0503
     21 C          11.1917    0.7916   -0.1322 C.ar    1  LIG1        0.1663
     22 C           4.7871    1.7390    4.2866 C.ar    1  LIG1        0.1654
     23 C           4.0847    3.0503    2.3706 C.ar    1  LIG1        0.1654
     24 C           4.3805   -2.2075    2.0569 C.ar    1  LIG1        0.0222
     25 C           4.0594    2.8181    3.7560 C.ar    1  LIG1        0.2035
     26 C          10.9016   -0.3580   -0.8335 C.ar    1  LIG1       -0.0156
     27 C           8.3268   -3.1279    1.3446 C.2     1  LIG1        0.0726
     28 C          12.0270    2.6172    0.6589 C.3     1  LIG1        0.2332
     29 C           3.5309   -2.2650    3.1720 C.ar    1  LIG1       -0.0475
     30 C           3.8326   -2.2405    0.7740 C.ar    1  LIG1       -0.0475
     31 C           2.1477   -2.3072    3.0035 C.ar    1  LIG1       -0.0193
     32 C           2.4393   -2.2753    0.6096 C.ar    1  LIG1       -0.0193
     33 C           1.5938   -2.3004    1.7234 C.ar    1  LIG1        0.1201
     34 C           3.6094    1.3051    6.2565 C.3     1  LIG1        0.0790
     35 C           3.8661    4.6564    0.6302 C.3     1  LIG1        0.0790
     36 C           2.0804    3.9474    4.3160 C.3     1  LIG1        0.0791
     37 C          -0.4016   -2.3197    0.4330 C.3     1  LIG1        0.0788
     38 H           5.4423   -0.0649    0.2567 H       1  LIG1        0.0363
     39 H           6.9326    0.7446    0.5868 H       1  LIG1        0.0363
     40 H           4.7408    2.2695    0.4613 H       1  LIG1        0.0658
     41 H           6.1037    0.0912    3.9023 H       1  LIG1        0.0658
     42 H           8.8872    0.6953    2.3437 H       1  LIG1        0.0661
     43 H           9.5986   -2.0717   -0.9068 H       1  LIG1        0.0625
     44 H          11.4938   -0.6608   -1.6880 H       1  LIG1        0.0655
     45 H          12.9439    2.6303    1.2603 H       1  LIG1        0.1166
     46 H          11.8809    3.6138    0.2261 H       1  LIG1        0.1166
     47 H           3.9516   -2.2694    4.1754 H       1  LIG1        0.0626
     48 H           4.4845   -2.2555   -0.0957 H       1  LIG1        0.0626
     49 H           1.5038   -2.3446    3.8775 H       1  LIG1        0.0654
     50 H           2.0500   -2.2915   -0.4024 H       1  LIG1        0.0654
     51 H           3.7073    0.5362    7.0290 H       1  LIG1        0.0660
     52 H           2.8208    0.9825    5.5660 H       1  LIG1        0.0660
     53 H           3.3262    2.2382    6.7525 H       1  LIG1        0.0660
     54 H           3.4467    5.6593    0.5041 H       1  LIG1        0.0660
     55 H           3.4772    4.0312   -0.1797 H       1  LIG1        0.0660
     56 H           4.9568    4.7436    0.5745 H       1  LIG1        0.0660
     57 H           1.5250    4.0434    5.2540 H       1  LIG1        0.0660
     58 H           1.6039    3.1526    3.7301 H       1  LIG1        0.0660
     59 H           2.0138    4.9073    3.7954 H       1  LIG1        0.0660
     60 H          -1.4836   -2.3448    0.5968 H       1  LIG1        0.0660
     61 H          -0.1323   -3.2087   -0.1459 H       1  LIG1        0.0660
     62 H          -0.1697   -1.4013   -0.1157 H       1  LIG1        0.0660
@<TRIPOS>BOND
     1     1    19    1
     2     1    28    1
     3     2    28    1
     4     2    21    1
     5     3    22    1
     6     3    34    1
     7     4    23    1
     8     4    35    1
     9     5    25    1
    10     5    36    1
    11     6    15    2
    12     7    27   ar
    13     8    27   ar
    14     9    33    1
    15     9    37    1
    16    10    11    1
    17    10    12    1
    18    11    13    2
    19    11    15    1
    20    12    16   ar
    21    12    17   ar
    22    13    14    1
    23    13    27    1
    24    14    20   ar
    25    14    18   ar
    26    15    24    1
    27    16    23   ar
    28    17    22   ar
    29    18    19   ar
    30    19    21   ar
    31    20    26   ar
    32    21    26   ar
    33    22    25   ar
    34    23    25   ar
    35    24    29   ar
    36    24    30   ar
    37    29    31   ar
    38    30    32   ar
    39    31    33   ar
    40    32    33   ar
    41    10    38    1
    42    10    39    1
    43    16    40    1
    44    17    41    1
    45    18    42    1
    46    20    43    1
    47    26    44    1
    48    28    45    1
    49    28    46    1
    50    29    47    1
    51    30    48    1
    52    31    49    1
    53    32    50    1
    54    34    51    1
    55    34    52    1
    56    34    53    1
    57    35    54    1
    58    35    55    1
    59    35    56    1
    60    36    57    1
    61    36    58    1
    62    36    59    1
    63    37    60    1
    64    37    61    1
    65    37    62    1
@<TRIPOS>MOLECULE
9871593
 62 65 0 0 0
SMALL
GASTEIGER

@<TRIPOS>ATOM
      1 O          10.0958    2.1690   -1.9043 O.3     1  LIG1       -0.4526
      2 O          11.8967    2.4854   -0.3282 O.3     1  LIG1       -0.4526
      3 O           4.6761    4.3146    2.6326 O.3     1  LIG1       -0.4913
      4 O           5.1516    0.7093    5.8476 O.3     1  LIG1       -0.4913
      5 O           4.4737    3.3522    5.3271 O.3     1  LIG1       -0.4885
      6 O           4.7839   -2.4216    1.1621 O.2     1  LIG1       -0.2870
      7 O           8.0559   -3.6785   -0.2541 O.co2   1  LIG1       -0.5446
      8 O           9.6778   -3.2835    1.3132 O.co2   1  LIG1       -0.5446
      9 O           7.5607   -6.1755    5.4505 O.3     1  LIG1       -0.4951
     10 C           6.1664    0.0595    0.9622 C.3     1  LIG1        0.0021
     11 C           6.8722   -1.2736    1.1167 C.2     1  LIG1        0.0135
     12 C           5.7778    0.8742    2.1846 C.ar    1  LIG1       -0.0358
     13 C           8.1526   -1.5290    0.7520 C.2     1  LIG1        0.0117
     14 C           9.1683   -0.5049    0.4434 C.ar    1  LIG1       -0.0121
     15 C           5.9568   -2.3969    1.5382 C.2     1  LIG1        0.1901
     16 C           5.6600    0.3599    3.4792 C.ar    1  LIG1       -0.0126
     17 C           5.4289    2.2197    1.9800 C.ar    1  LIG1       -0.0126
     18 C           9.0949    0.2902   -0.7089 C.ar    1  LIG1       -0.0084
     19 C          10.0474    1.2757   -0.8775 C.ar    1  LIG1        0.1668
     20 C          10.2323   -0.3059    1.3553 C.ar    1  LIG1       -0.0503
     21 C          11.0721    1.4622    0.0227 C.ar    1  LIG1        0.1663
     22 C           4.9590    3.0284    3.0204 C.ar    1  LIG1        0.1654
     23 C           5.2227    1.1578    4.5504 C.ar    1  LIG1        0.1654
     24 C           6.3986   -3.3856    2.5711 C.ar    1  LIG1        0.0222
     25 C           4.8515    2.4998    4.3153 C.ar    1  LIG1        0.2035
     26 C          11.2039    0.6753    1.1425 C.ar    1  LIG1       -0.0156
     27 C           8.6965   -2.9741    0.5775 C.2     1  LIG1        0.0726
     28 C          11.2370    2.9600   -1.5178 C.3     1  LIG1        0.2332
     29 C           5.7472   -4.6242    2.6242 C.ar    1  LIG1       -0.0475
     30 C           7.3878   -3.0972    3.5213 C.ar    1  LIG1       -0.0475
     31 C           6.1113   -5.5783    3.5799 C.ar    1  LIG1       -0.0193
     32 C           7.7489   -4.0499    4.4777 C.ar    1  LIG1       -0.0193
     33 C           7.1314   -5.2983    4.4906 C.ar    1  LIG1        0.1201
     34 C           3.5283    4.9009    3.2334 C.3     1  LIG1        0.0790
     35 C           5.4619   -0.6570    6.0937 C.3     1  LIG1        0.0790
     36 C           3.4207    2.8492    6.1466 C.3     1  LIG1        0.0791
     37 C           7.7143   -7.5072    4.9656 C.3     1  LIG1        0.0788
     38 H           5.2459   -0.1024    0.3837 H       1  LIG1        0.0363
     39 H           6.7648    0.7212    0.3291 H       1  LIG1        0.0363
     40 H           5.9168   -0.6756    3.6471 H       1  LIG1        0.0658
     41 H           5.5020    2.6475    0.9811 H       1  LIG1        0.0658
     42 H           8.3058    0.1495   -1.4388 H       1  LIG1        0.0661
     43 H          10.3129   -0.9506    2.2304 H       1  LIG1        0.0625
     44 H          12.0242    0.8066    1.8366 H       1  LIG1        0.0655
     45 H          10.9055    3.9906   -1.3421 H       1  LIG1        0.1166
     46 H          11.9588    2.9616   -2.3420 H       1  LIG1        0.1166
     47 H           4.9695   -4.8545    1.8993 H       1  LIG1        0.0626
     48 H           7.9225   -2.1516    3.5082 H       1  LIG1        0.0626
     49 H           5.5921   -6.5300    3.5914 H       1  LIG1        0.0654
     50 H           8.5489   -3.8300    5.1789 H       1  LIG1        0.0654
     51 H           3.1419    5.6555    2.5406 H       1  LIG1        0.0660
     52 H           3.8031    5.4190    4.1566 H       1  LIG1        0.0660
     53 H           2.7254    4.1757    3.4064 H       1  LIG1        0.0660
     54 H           5.3108   -0.8436    7.1614 H       1  LIG1        0.0660
     55 H           6.5110   -0.8701    5.8654 H       1  LIG1        0.0660
     56 H           4.7876   -1.3224    5.5443 H       1  LIG1        0.0660
     57 H           2.7916    3.6979    6.4334 H       1  LIG1        0.0660
     58 H           3.8321    2.4218    7.0655 H       1  LIG1        0.0660
     59 H           2.7809    2.1244    5.6300 H       1  LIG1        0.0660
     60 H           8.3717   -8.0407    5.6591 H       1  LIG1        0.0660
     61 H           8.1825   -7.5347    3.9748 H       1  LIG1        0.0660
     62 H           6.7499   -8.0244    4.9550 H       1  LIG1        0.0660
@<TRIPOS>BOND
     1     1    19    1
     2     1    28    1
     3     2    28    1
     4     2    21    1
     5     3    22    1
     6     3    34    1
     7     4    23    1
     8     4    35    1
     9     5    25    1
    10     5    36    1
    11     6    15    2
    12     7    27   ar
    13     8    27   ar
    14     9    33    1
    15     9    37    1
    16    10    11    1
    17    10    12    1
    18    11    13    2
    19    11    15    1
    20    12    16   ar
    21    12    17   ar
    22    13    14    1
    23    13    27    1
    24    14    20   ar
    25    14    18   ar
    26    15    24    1
    27    16    23   ar
    28    17    22   ar
    29    18    19   ar
    30    19    21   ar
    31    20    26   ar
    32    21    26   ar
    33    22    25   ar
    34    23    25   ar
    35    24    29   ar
    36    24    30   ar
    37    29    31   ar
    38    30    32   ar
    39    31    33   ar
    40    32    33   ar
    41    10    38    1
    42    10    39    1
    43    16    40    1
    44    17    41    1
    45    18    42    1
    46    20    43    1
    47    26    44    1
    48    28    45    1
    49    28    46    1
    50    29    47    1
    51    30    48    1
    52    31    49    1
    53    32    50    1
    54    34    51    1
    55    34    52    1
    56    34    53    1
    57    35    54    1
    58    35    55    1
    59    35    56    1
    60    36    57    1
    61    36    58    1
    62    36    59    1
    63    37    60    1
    64    37    61    1
    65    37    62    1
@<TRIPOS>MOLECULE
9871593
 62 65 0 0 0
SMALL
GASTEIGER

@<TRIPOS>ATOM
      1 O          11.4363   -0.8075   -2.6117 O.3     1  LIG1       -0.4526
      2 O          12.1069    1.3122   -1.6794 O.3     1  LIG1       -0.4526
      3 O           7.3286    2.2746    5.3882 O.3     1  LIG1       -0.4913
      4 O           3.8506    4.1562    2.7214 O.3     1  LIG1       -0.4913
      5 O           5.5350    4.1036    5.0830 O.3     1  LIG1       -0.4885
      6 O           6.7710   -2.5528    3.2968 O.2     1  LIG1       -0.2870
      7 O           9.6455   -3.1621    1.7405 O.co2   1  LIG1       -0.5446
      8 O           7.7953   -3.8801    0.5810 O.co2   1  LIG1       -0.5446
      9 O           0.5767   -1.6437    3.3515 O.3     1  LIG1       -0.4951
     10 C           6.2225    0.1798    0.9948 C.3     1  LIG1        0.0021
     11 C           6.8394   -1.1479    1.3650 C.2     1  LIG1        0.0135
     12 C           5.9731    1.1683    2.1170 C.ar    1  LIG1       -0.0358
     13 C           8.0598   -1.5582    0.9378 C.2     1  LIG1        0.0117
     14 C           9.0607   -0.7442    0.2055 C.ar    1  LIG1       -0.0121
     15 C           6.1359   -1.9946    2.4027 C.2     1  LIG1        0.1901
     16 C           5.0016    2.1642    1.9375 C.ar    1  LIG1       -0.0126
     17 C           6.7458    1.1891    3.2807 C.ar    1  LIG1       -0.0126
     18 C           9.6850   -1.2251   -0.9570 C.ar    1  LIG1       -0.0084
     19 C          10.6951   -0.4681   -1.5199 C.ar    1  LIG1        0.1668
     20 C           9.4848    0.4981    0.7411 C.ar    1  LIG1       -0.0503
     21 C          11.0818    0.7417   -0.9898 C.ar    1  LIG1        0.1663
     22 C           6.5726    2.1906    4.2394 C.ar    1  LIG1        0.1654
     23 C           4.7834    3.1658    2.8967 C.ar    1  LIG1        0.1654
     24 C           4.6558   -1.9508    2.5613 C.ar    1  LIG1        0.0222
     25 C           5.5788    3.1823    4.0617 C.ar    1  LIG1        0.2035
     26 C          10.4867    1.2614    0.1342 C.ar    1  LIG1       -0.0156
     27 C           8.5343   -3.0224    1.1536 C.2     1  LIG1        0.0726
     28 C          12.3975    0.2641   -2.6248 C.3     1  LIG1        0.2332
     29 C           3.7572   -1.8844    1.4926 C.ar    1  LIG1       -0.0475
     30 C           4.1572   -1.9817    3.8753 C.ar    1  LIG1       -0.0475
     31 C           2.3824   -1.7628    1.7417 C.ar    1  LIG1       -0.0193
     32 C           2.7887   -1.8861    4.1224 C.ar    1  LIG1       -0.0193
     33 C           1.9096   -1.7386    3.0558 C.ar    1  LIG1        0.1201
     34 C           8.5193    1.4949    5.4317 C.3     1  LIG1        0.0790
     35 C           2.9703    4.0656    1.6094 C.3     1  LIG1        0.0790
     36 C           4.4720    5.0360    5.1410 C.3     1  LIG1        0.0791
     37 C           0.0430   -0.3849    2.9455 C.3     1  LIG1        0.0788
     38 H           5.2810   -0.0072    0.4678 H       1  LIG1        0.0363
     39 H           6.8311    0.7033    0.2479 H       1  LIG1        0.0363
     40 H           4.4345    2.1433    1.0117 H       1  LIG1        0.0658
     41 H           7.4920    0.4123    3.4253 H       1  LIG1        0.0658
     42 H           9.4246   -2.1936   -1.3733 H       1  LIG1        0.0661
     43 H           9.0581    0.8598    1.6708 H       1  LIG1        0.0625
     44 H          10.8078    2.2039    0.5597 H       1  LIG1        0.0655
     45 H          12.4239    0.6995   -3.6296 H       1  LIG1        0.1166
     46 H          13.3893   -0.1464   -2.3974 H       1  LIG1        0.1166
     47 H           4.1147   -1.9431    0.4679 H       1  LIG1        0.0626
     48 H           4.8452   -2.0764    4.7141 H       1  LIG1        0.0626
     49 H           1.6883   -1.7135    0.9091 H       1  LIG1        0.0654
     50 H           2.4188   -1.9143    5.1430 H       1  LIG1        0.0654
     51 H           9.0822    1.7963    6.3204 H       1  LIG1        0.0660
     52 H           9.1553    1.6850    4.5597 H       1  LIG1        0.0660
     53 H           8.2876    0.4295    5.5308 H       1  LIG1        0.0660
     54 H           2.2537    4.8891    1.6846 H       1  LIG1        0.0660
     55 H           2.4014    3.1299    1.6259 H       1  LIG1        0.0660
     56 H           3.5134    4.1867    0.6665 H       1  LIG1        0.0660
     57 H           4.5520    5.5665    6.0953 H       1  LIG1        0.0660
     58 H           3.4964    4.5399    5.1304 H       1  LIG1        0.0660
     59 H           4.5640    5.7873    4.3510 H       1  LIG1        0.0660
     60 H          -0.8921   -0.2272    3.4918 H       1  LIG1        0.0660
     61 H          -0.1867   -0.3935    1.8761 H       1  LIG1        0.0660
     62 H           0.7157    0.4463    3.1880 H       1  LIG1        0.0660
@<TRIPOS>BOND
     1     1    19    1
     2     1    28    1
     3     2    28    1
     4     2    21    1
     5     3    22    1
     6     3    34    1
     7     4    23    1
     8     4    35    1
     9     5    25    1
    10     5    36    1
    11     6    15    2
    12     7    27   ar
    13     8    27   ar
    14     9    33    1
    15     9    37    1
    16    10    11    1
    17    10    12    1
    18    11    13    2
    19    11    15    1
    20    12    16   ar
    21    12    17   ar
    22    13    14    1
    23    13    27    1
    24    14    20   ar
    25    14    18   ar
    26    15    24    1
    27    16    23   ar
    28    17    22   ar
    29    18    19   ar
    30    19    21   ar
    31    20    26   ar
    32    21    26   ar
    33    22    25   ar
    34    23    25   ar
    35    24    29   ar
    36    24    30   ar
    37    29    31   ar
    38    30    32   ar
    39    31    33   ar
    40    32    33   ar
    41    10    38    1
    42    10    39    1
    43    16    40    1
    44    17    41    1
    45    18    42    1
    46    20    43    1
    47    26    44    1
    48    28    45    1
    49    28    46    1
    50    29    47    1
    51    30    48    1
    52    31    49    1
    53    32    50    1
    54    34    51    1
    55    34    52    1
    56    34    53    1
    57    35    54    1
    58    35    55    1
    59    35    56    1
    60    36    57    1
    61    36    58    1
    62    36    59    1
    63    37    60    1
    64    37    61    1
    65    37    62    1
@<TRIPOS>MOLECULE
9871593
 62 65 0 0 0
SMALL
GASTEIGER

@<TRIPOS>ATOM
      1 O          10.1296    2.1614   -1.9193 O.3     1  LIG1       -0.4526
      2 O          11.9233    2.4953   -0.3387 O.3     1  LIG1       -0.4526
      3 O           4.1725    4.1086    2.5062 O.3     1  LIG1       -0.4913
      4 O           5.1643    0.6526    5.8282 O.3     1  LIG1       -0.4913
      5 O           4.0348    3.2322    5.2154 O.3     1  LIG1       -0.4885
      6 O           4.8162   -2.3838    1.1544 O.2     1  LIG1       -0.2870
      7 O           8.0784   -3.6753   -0.2553 O.co2   1  LIG1       -0.5446
      8 O           9.7048   -3.2855    1.3074 O.co2   1  LIG1       -0.5446
      9 O           7.5372   -6.1836    5.4422 O.3     1  LIG1       -0.4951
     10 C           6.2303    0.0843    0.9606 C.3     1  LIG1        0.0021
     11 C           6.9147   -1.2584    1.1181 C.2     1  LIG1        0.0135
     12 C           5.7360    0.8562    2.1704 C.ar    1  LIG1       -0.0358
     13 C           8.1926   -1.5253    0.7518 C.2     1  LIG1        0.0117
     14 C           9.2124   -0.5084    0.4362 C.ar    1  LIG1       -0.0121
     15 C           5.9864   -2.3716    1.5380 C.2     1  LIG1        0.1901
     16 C           5.7463    0.3896    3.4838 C.ar    1  LIG1       -0.0126
     17 C           5.1855    2.1239    1.9388 C.ar    1  LIG1       -0.0126
     18 C           9.1380    0.2802   -0.7206 C.ar    1  LIG1       -0.0084
     19 C          10.0853    1.2700   -0.8909 C.ar    1  LIG1        0.1668
     20 C          10.2734   -0.3016    1.3498 C.ar    1  LIG1       -0.0503
     21 C          11.1059    1.4661    0.0120 C.ar    1  LIG1        0.1663
     22 C           4.6642    2.9126    2.9729 C.ar    1  LIG1        0.1654
     23 C           5.1915    1.1373    4.5426 C.ar    1  LIG1        0.1654
     24 C           6.4154   -3.3694    2.5690 C.ar    1  LIG1        0.0222
     25 C           4.6470    2.4205    4.2940 C.ar    1  LIG1        0.2035
     26 C          11.2395    0.6843    1.1354 C.ar    1  LIG1       -0.0156
     27 C           8.7245   -2.9739    0.5745 C.2     1  LIG1        0.0726
     28 C          11.2651    2.9603   -1.5330 C.3     1  LIG1        0.2332
     29 C           5.7391   -4.5946    2.6278 C.ar    1  LIG1       -0.0475
     30 C           7.4196   -3.1048    3.5100 C.ar    1  LIG1       -0.0475
     31 C           6.0901   -5.5569    3.5818 C.ar    1  LIG1       -0.0193
     32 C           7.7673   -4.0640    4.4649 C.ar    1  LIG1       -0.0193
     33 C           7.1223   -5.2980    4.4840 C.ar    1  LIG1        0.1201
     34 C           4.0855    5.1952    3.4151 C.3     1  LIG1        0.0790
     35 C           5.3954   -0.7388    6.0228 C.3     1  LIG1        0.0790
     36 C           4.1113    2.9328    6.5980 C.3     1  LIG1        0.0791
     37 C           7.6894   -7.5116    4.9461 C.3     1  LIG1        0.0788
     38 H           5.3644   -0.0624    0.2988 H       1  LIG1        0.0363
     39 H           6.8782    0.7764    0.4152 H       1  LIG1        0.0363
     40 H           6.1820   -0.5797    3.6776 H       1  LIG1        0.0658
     41 H           5.1576    2.5153    0.9222 H       1  LIG1        0.0658
     42 H           8.3483    0.1342   -1.4491 H       1  LIG1        0.0661
     43 H          10.3538   -0.9423    2.2278 H       1  LIG1        0.0625
     44 H          12.0568    0.8239    1.8315 H       1  LIG1        0.0655
     45 H          10.9271    3.9898   -1.3634 H       1  LIG1        0.1166
     46 H          11.9897    2.9620   -2.3547 H       1  LIG1        0.1166
     47 H           4.9502   -4.8090    1.9099 H       1  LIG1        0.0626
     48 H           7.9786   -2.1736    3.4907 H       1  LIG1        0.0626
     49 H           5.5510   -6.4975    3.5982 H       1  LIG1        0.0654
     50 H           8.5776   -3.8612    5.1592 H       1  LIG1        0.0654
     51 H           4.0234    6.1143    2.8233 H       1  LIG1        0.0660
     52 H           4.9734    5.2790    4.0504 H       1  LIG1        0.0660
     53 H           3.1656    5.1323    4.0039 H       1  LIG1        0.0660
     54 H           5.1544   -0.9710    7.0647 H       1  LIG1        0.0660
     55 H           6.4509   -0.9819    5.8671 H       1  LIG1        0.0660
     56 H           4.7437   -1.3496    5.3889 H       1  LIG1        0.0660
     57 H           3.6860    3.7840    7.1398 H       1  LIG1        0.0660
     58 H           5.1475    2.8271    6.9341 H       1  LIG1        0.0660
     59 H           3.4989    2.0610    6.8466 H       1  LIG1        0.0660
     60 H           8.3397   -8.0537    5.6397 H       1  LIG1        0.0660
     61 H           8.1649   -7.5318    3.9586 H       1  LIG1        0.0660
     62 H           6.7232   -8.0249    4.9234 H       1  LIG1        0.0660
@<TRIPOS>BOND
     1     1    19    1
     2     1    28    1
     3     2    28    1
     4     2    21    1
     5     3    22    1
     6     3    34    1
     7     4    23    1
     8     4    35    1
     9     5    25    1
    10     5    36    1
    11     6    15    2
    12     7    27   ar
    13     8    27   ar
    14     9    33    1
    15     9    37    1
    16    10    11    1
    17    10    12    1
    18    11    13    2
    19    11    15    1
    20    12    16   ar
    21    12    17   ar
    22    13    14    1
    23    13    27    1
    24    14    20   ar
    25    14    18   ar
    26    15    24    1
    27    16    23   ar
    28    17    22   ar
    29    18    19   ar
    30    19    21   ar
    31    20    26   ar
    32    21    26   ar
    33    22    25   ar
    34    23    25   ar
    35    24    29   ar
    36    24    30   ar
    37    29    31   ar
    38    30    32   ar
    39    31    33   ar
    40    32    33   ar
    41    10    38    1
    42    10    39    1
    43    16    40    1
    44    17    41    1
    45    18    42    1
    46    20    43    1
    47    26    44    1
    48    28    45    1
    49    28    46    1
    50    29    47    1
    51    30    48    1
    52    31    49    1
    53    32    50    1
    54    34    51    1
    55    34    52    1
    56    34    53    1
    57    35    54    1
    58    35    55    1
    59    35    56    1
    60    36    57    1
    61    36    58    1
    62    36    59    1
    63    37    60    1
    64    37    61    1
    65    37    62    1
@<TRIPOS>MOLECULE
9871593
 62 65 0 0 0
SMALL
GASTEIGER

@<TRIPOS>ATOM
      1 O           9.9422    2.0568   -1.7982 O.3     1  LIG1       -0.4526
      2 O          11.9063    2.1328   -0.3974 O.3     1  LIG1       -0.4526
      3 O           4.8849    1.1474    5.8811 O.3     1  LIG1       -0.4913
      4 O           2.5284    3.2240    2.1781 O.3     1  LIG1       -0.4913
      5 O           2.8328    2.7776    5.0214 O.3     1  LIG1       -0.4885
      6 O           6.5703   -2.6508    3.1856 O.2     1  LIG1       -0.2870
      7 O           7.2341   -3.7311    0.1081 O.co2   1  LIG1       -0.5446
      8 O           9.3283   -3.5839    1.0223 O.co2   1  LIG1       -0.5446
      9 O           0.3807   -2.2905    2.1517 O.3     1  LIG1       -0.4951
     10 C           6.4613    0.3357    1.3507 C.3     1  LIG1        0.0021
     11 C           6.8213   -1.1283    1.3969 C.2     1  LIG1        0.0135
     12 C           5.4533    0.9275    2.3086 C.ar    1  LIG1       -0.0358
     13 C           7.9668   -1.6166    0.8575 C.2     1  LIG1        0.0117
     14 C           9.0742   -0.7472    0.4149 C.ar    1  LIG1       -0.0121
     15 C           6.0268   -2.0821    2.2364 C.2     1  LIG1        0.1901
     16 C           4.4347    1.7594    1.8106 C.ar    1  LIG1       -0.0126
     17 C           5.5715    0.7714    3.6870 C.ar    1  LIG1       -0.0126
     18 C           8.9462    0.1350   -0.6675 C.ar    1  LIG1       -0.0084
     19 C           9.9470    1.0675   -0.8610 C.ar    1  LIG1        0.1668
     20 C          10.2401   -0.6954    1.2178 C.ar    1  LIG1       -0.0503
     21 C          11.0667    1.1172   -0.0599 C.ar    1  LIG1        0.1663
     22 C           4.6860    1.4237    4.5484 C.ar    1  LIG1        0.1654
     23 C           3.5281    2.4169    2.6585 C.ar    1  LIG1        0.1654
     24 C           4.5499   -2.1744    2.1022 C.ar    1  LIG1        0.0222
     25 C           3.6492    2.2464    4.0536 C.ar    1  LIG1        0.2035
     26 C          11.2557    0.2326    0.9756 C.ar    1  LIG1       -0.0156
     27 C           8.2002   -3.1391    0.6819 C.2     1  LIG1        0.0726
     28 C          11.1485    2.7637   -1.4468 C.3     1  LIG1        0.2332
     29 C           3.8649   -1.8963    0.9176 C.ar    1  LIG1       -0.0475
     30 C           3.8228   -2.5330    3.2488 C.ar    1  LIG1       -0.0475
     31 C           2.4610   -1.9243    0.9001 C.ar    1  LIG1       -0.0193
     32 C           2.4295   -2.5697    3.2254 C.ar    1  LIG1       -0.0193
     33 C           1.7455   -2.2357    2.0606 C.ar    1  LIG1        0.1201
     34 C           5.0561    2.3130    6.6806 C.3     1  LIG1        0.0790
     35 C           2.3798    3.3604    0.7711 C.3     1  LIG1        0.0790
     36 C           1.9124    3.7991    4.6793 C.3     1  LIG1        0.0791
     37 C          -0.3058   -1.3220    1.3691 C.3     1  LIG1        0.0788
     38 H           6.0987    0.5190    0.3287 H       1  LIG1        0.0363
     39 H           7.3579    0.9565    1.4716 H       1  LIG1        0.0363
     40 H           4.3758    1.8842    0.7331 H       1  LIG1        0.0658
     41 H           6.3588    0.1448    4.1044 H       1  LIG1        0.0658
     42 H           8.0670    0.1227   -1.3000 H       1  LIG1        0.0661
     43 H          10.3412   -1.3936    2.0500 H       1  LIG1        0.0625
     44 H          12.1394    0.2651    1.6003 H       1  LIG1        0.0655
     45 H          10.8770    3.7753   -1.1188 H       1  LIG1        0.1166
     46 H          11.7818    2.8453   -2.3371 H       1  LIG1        0.1166
     47 H           4.4140   -1.6799    0.0051 H       1  LIG1        0.0626
     48 H           4.3488   -2.7713    4.1720 H       1  LIG1        0.0626
     49 H           1.9530   -1.7237   -0.0373 H       1  LIG1        0.0654
     50 H           1.8854   -2.8390    4.1258 H       1  LIG1        0.0654
     51 H           5.7799    2.0733    7.4658 H       1  LIG1        0.0660
     52 H           4.1125    2.5712    7.1697 H       1  LIG1        0.0660
     53 H           5.4462    3.1690    6.1177 H       1  LIG1        0.0660
     54 H           1.5337    4.0303    0.5899 H       1  LIG1        0.0660
     55 H           2.1465    2.3982    0.3033 H       1  LIG1        0.0660
     56 H           3.2649    3.8214    0.3202 H       1  LIG1        0.0660
     57 H           1.4877    4.1840    5.6119 H       1  LIG1        0.0660
     58 H           1.0808    3.3986    4.0918 H       1  LIG1        0.0660
     59 H           2.4056    4.6407    4.1820 H       1  LIG1        0.0660
     60 H          -1.3344   -1.2657    1.7391 H       1  LIG1        0.0660
     61 H          -0.3438   -1.6278    0.3200 H       1  LIG1        0.0660
     62 H           0.1392   -0.3256    1.4734 H       1  LIG1        0.0660
@<TRIPOS>BOND
     1     1    19    1
     2     1    28    1
     3     2    28    1
     4     2    21    1
     5     3    22    1
     6     3    34    1
     7     4    23    1
     8     4    35    1
     9     5    25    1
    10     5    36    1
    11     6    15    2
    12     7    27   ar
    13     8    27   ar
    14     9    33    1
    15     9    37    1
    16    10    11    1
    17    10    12    1
    18    11    13    2
    19    11    15    1
    20    12    16   ar
    21    12    17   ar
    22    13    14    1
    23    13    27    1
    24    14    20   ar
    25    14    18   ar
    26    15    24    1
    27    16    23   ar
    28    17    22   ar
    29    18    19   ar
    30    19    21   ar
    31    20    26   ar
    32    21    26   ar
    33    22    25   ar
    34    23    25   ar
    35    24    29   ar
    36    24    30   ar
    37    29    31   ar
    38    30    32   ar
    39    31    33   ar
    40    32    33   ar
    41    10    38    1
    42    10    39    1
    43    16    40    1
    44    17    41    1
    45    18    42    1
    46    20    43    1
    47    26    44    1
    48    28    45    1
    49    28    46    1
    50    29    47    1
    51    30    48    1
    52    31    49    1
    53    32    50    1
    54    34    51    1
    55    34    52    1
    56    34    53    1
    57    35    54    1
    58    35    55    1
    59    35    56    1
    60    36    57    1
    61    36    58    1
    62    36    59    1
    63    37    60    1
    64    37    61    1
    65    37    62    1
@<TRIPOS>MOLECULE
9871593
 62 65 0 0 0
SMALL
GASTEIGER

@<TRIPOS>ATOM
      1 O          10.3453    0.8001   -2.8084 O.3     1  LIG1       -0.4526
      2 O          11.7096    2.0251   -1.2369 O.3     1  LIG1       -0.4526
      3 O           5.3970    4.8000    2.4949 O.3     1  LIG1       -0.4913
      4 O           7.1419    1.6608    5.7488 O.3     1  LIG1       -0.4913
      5 O           6.2074    4.3003    5.0883 O.3     1  LIG1       -0.4885
      6 O           6.6036   -2.6707    3.0788 O.2     1  LIG1       -0.2870
      7 O           7.6017   -3.8317    0.2904 O.co2   1  LIG1       -0.5446
      8 O           9.5315   -3.2739    1.4027 O.co2   1  LIG1       -0.5446
      9 O           0.4665   -1.2417    3.0646 O.3     1  LIG1       -0.4951
     10 C           6.2727    0.2911    1.0205 C.3     1  LIG1        0.0021
     11 C           6.7740   -1.1115    1.2797 C.2     1  LIG1        0.0135
     12 C           6.3069    1.2938    2.1535 C.ar    1  LIG1       -0.0358
     13 C           7.9653   -1.5622    0.8266 C.2     1  LIG1        0.0117
     14 C           8.9931   -0.6663    0.2733 C.ar    1  LIG1       -0.0121
     15 C           6.0120   -2.0018    2.2293 C.2     1  LIG1        0.1901
     16 C           6.7905    1.0076    3.4353 C.ar    1  LIG1       -0.0126
     17 C           5.8364    2.5857    1.8953 C.ar    1  LIG1       -0.0126
     18 C           9.1388   -0.4661   -1.1038 C.ar    1  LIG1       -0.0084
     19 C          10.0788    0.4577   -1.5172 C.ar    1  LIG1        0.1668
     20 C           9.8064    0.0524    1.1835 C.ar    1  LIG1       -0.0503
     21 C          10.8578    1.1599   -0.6224 C.ar    1  LIG1        0.1663
     22 C           5.8715    3.5693    2.8834 C.ar    1  LIG1        0.1654
     23 C           6.7586    1.9631    4.4653 C.ar    1  LIG1        0.1654
     24 C           4.5423   -1.8664    2.3966 C.ar    1  LIG1        0.0222
     25 C           6.3191    3.2722    4.1837 C.ar    1  LIG1        0.2035
     26 C          10.7508    0.9774    0.7369 C.ar    1  LIG1       -0.0156
     27 C           8.4028   -3.0456    0.8809 C.2     1  LIG1        0.0726
     28 C          11.3947    1.7691   -2.6193 C.3     1  LIG1        0.2332
     29 C           4.0455   -1.9376    3.7074 C.ar    1  LIG1       -0.0475
     30 C           3.6521   -1.6683    1.3424 C.ar    1  LIG1       -0.0475
     31 C           2.6887   -1.7478    3.9741 C.ar    1  LIG1       -0.0193
     32 C           2.2917   -1.4634    1.6147 C.ar    1  LIG1       -0.0193
     33 C           1.8072   -1.4837    2.9289 C.ar    1  LIG1        0.1201
     34 C           6.3749    5.8274    2.6472 C.3     1  LIG1        0.0790
     35 C           7.1686    0.2812    6.1066 C.3     1  LIG1        0.0790
     36 C           7.1090    4.3057    6.1852 C.3     1  LIG1        0.0791
     37 C          -0.0196   -1.1103    4.3966 C.3     1  LIG1        0.0788
     38 H           5.2472    0.2479    0.6411 H       1  LIG1        0.0363
     39 H           6.8317    0.7394    0.1891 H       1  LIG1        0.0363
     40 H           7.1962    0.0183    3.6264 H       1  LIG1        0.0658
     41 H           5.4598    2.8420    0.9072 H       1  LIG1        0.0658
     42 H           8.5343   -1.0140   -1.8169 H       1  LIG1        0.0661
     43 H           9.7012   -0.1359    2.2509 H       1  LIG1        0.0625
     44 H          11.3749    1.5210    1.4356 H       1  LIG1        0.0655
     45 H          11.0864    2.7128   -3.0841 H       1  LIG1        0.1166
     46 H          12.3002    1.4118   -3.1232 H       1  LIG1        0.1166
     47 H           4.7273   -2.1345    4.5331 H       1  LIG1        0.0626
     48 H           4.0017   -1.6693    0.3135 H       1  LIG1        0.0626
     49 H           2.3640   -1.8102    5.0067 H       1  LIG1        0.0654
     50 H           1.6029   -1.2806    0.7937 H       1  LIG1        0.0654
     51 H           6.2355    6.5427    1.8304 H       1  LIG1        0.0660
     52 H           7.4048    5.4550    2.5904 H       1  LIG1        0.0660
     53 H           6.2126    6.3616    3.5877 H       1  LIG1        0.0660
     54 H           7.2781    0.2243    7.1938 H       1  LIG1        0.0660
     55 H           8.0320   -0.2222    5.6605 H       1  LIG1        0.0660
     56 H           6.2315   -0.2213    5.8426 H       1  LIG1        0.0660
     57 H           7.1600    5.3320    6.5623 H       1  LIG1        0.0660
     58 H           8.1243    4.0170    5.8930 H       1  LIG1        0.0660
     59 H           6.7259    3.6840    6.9996 H       1  LIG1        0.0660
     60 H          -1.0734   -0.8205    4.3440 H       1  LIG1        0.0660
     61 H           0.5118   -0.3226    4.9427 H       1  LIG1        0.0660
     62 H           0.0367   -2.0655    4.9295 H       1  LIG1        0.0660
@<TRIPOS>BOND
     1     1    19    1
     2     1    28    1
     3     2    28    1
     4     2    21    1
     5     3    22    1
     6     3    34    1
     7     4    23    1
     8     4    35    1
     9     5    25    1
    10     5    36    1
    11     6    15    2
    12     7    27   ar
    13     8    27   ar
    14     9    33    1
    15     9    37    1
    16    10    11    1
    17    10    12    1
    18    11    13    2
    19    11    15    1
    20    12    16   ar
    21    12    17   ar
    22    13    14    1
    23    13    27    1
    24    14    20   ar
    25    14    18   ar
    26    15    24    1
    27    16    23   ar
    28    17    22   ar
    29    18    19   ar
    30    19    21   ar
    31    20    26   ar
    32    21    26   ar
    33    22    25   ar
    34    23    25   ar
    35    24    29   ar
    36    24    30   ar
    37    29    31   ar
    38    30    32   ar
    39    31    33   ar
    40    32    33   ar
    41    10    38    1
    42    10    39    1
    43    16    40    1
    44    17    41    1
    45    18    42    1
    46    20    43    1
    47    26    44    1
    48    28    45    1
    49    28    46    1
    50    29    47    1
    51    30    48    1
    52    31    49    1
    53    32    50    1
    54    34    51    1
    55    34    52    1
    56    34    53    1
    57    35    54    1
    58    35    55    1
    59    35    56    1
    60    36    57    1
    61    36    58    1
    62    36    59    1
    63    37    60    1
    64    37    61    1
    65    37    62    1
@<TRIPOS>MOLECULE
9871593
 62 65 0 0 0
SMALL
GASTEIGER

@<TRIPOS>ATOM
      1 O          10.1101    2.1625   -1.9288 O.3     1  LIG1       -0.4526
      2 O          11.8976    2.4934   -0.3405 O.3     1  LIG1       -0.4526
      3 O           4.7253    4.3283    2.6504 O.3     1  LIG1       -0.4913
      4 O           5.0169    0.6331    5.7995 O.3     1  LIG1       -0.4913
      5 O           4.4565    3.4209    5.2647 O.3     1  LIG1       -0.4885
      6 O           4.7882   -2.4265    1.1311 O.2     1  LIG1       -0.2870
      7 O           8.0585   -3.6643   -0.2788 O.co2   1  LIG1       -0.5446
      8 O           9.6762   -3.2753    1.2931 O.co2   1  LIG1       -0.5446
      9 O           7.5550   -6.1627    5.4416 O.3     1  LIG1       -0.4951
     10 C           6.1617    0.0634    0.9446 C.3     1  LIG1        0.0021
     11 C           6.8705   -1.2681    1.0994 C.2     1  LIG1        0.0135
     12 C           5.7723    0.8773    2.1672 C.ar    1  LIG1       -0.0358
     13 C           8.1527   -1.5199    0.7375 C.2     1  LIG1        0.0117
     14 C           9.1675   -0.4940    0.4319 C.ar    1  LIG1       -0.0121
     15 C           5.9575   -2.3962    1.5132 C.2     1  LIG1        0.1901
     16 C           5.6019    0.3525    3.4515 C.ar    1  LIG1       -0.0126
     17 C           5.4566    2.2283    1.9730 C.ar    1  LIG1       -0.0126
     18 C           9.1004    0.2925   -0.7267 C.ar    1  LIG1       -0.0084
     19 C          10.0538    1.2777   -0.8959 C.ar    1  LIG1        0.1668
     20 C          10.2234   -0.2874    1.3503 C.ar    1  LIG1       -0.0503
     21 C          11.0707    1.4720    0.0119 C.ar    1  LIG1        0.1663
     22 C           4.9828    3.0272    3.0186 C.ar    1  LIG1        0.1654
     23 C           5.1627    1.1441    4.5336 C.ar    1  LIG1        0.1654
     24 C           6.3990   -3.3827    2.5496 C.ar    1  LIG1        0.0222
     25 C           4.8527    2.5056    4.3212 C.ar    1  LIG1        0.2035
     26 C          11.1945    0.6939    1.1388 C.ar    1  LIG1       -0.0156
     27 C           8.6968   -2.9640    0.5569 C.2     1  LIG1        0.0726
     28 C          11.2497    2.9552   -1.5415 C.3     1  LIG1        0.2332
     29 C           5.7538   -4.6241    2.5976 C.ar    1  LIG1       -0.0475
     30 C           7.3795   -3.0866    3.5051 C.ar    1  LIG1       -0.0475
     31 C           6.1161   -5.5760    3.5600 C.ar    1  LIG1       -0.0193
     32 C           7.7403   -4.0383    4.4659 C.ar    1  LIG1       -0.0193
     33 C           7.1273   -5.2892    4.4762 C.ar    1  LIG1        0.1201
     34 C           3.4806    4.8396    3.1180 C.3     1  LIG1        0.0790
     35 C           5.3625   -0.7286    6.0257 C.3     1  LIG1        0.0790
     36 C           4.1759    3.0010    6.5882 C.3     1  LIG1        0.0791
     37 C           7.7093   -7.4970    4.9642 C.3     1  LIG1        0.0788
     38 H           5.2414   -0.0995    0.3663 H       1  LIG1        0.0363
     39 H           6.7603    0.7248    0.3108 H       1  LIG1        0.0363
     40 H           5.8079   -0.6975    3.6017 H       1  LIG1        0.0658
     41 H           5.5530    2.6692    0.9820 H       1  LIG1        0.0658
     42 H           8.3176    0.1451   -1.4615 H       1  LIG1        0.0661
     43 H          10.2988   -0.9282    2.2294 H       1  LIG1        0.0625
     44 H          12.0092    0.8318    1.8384 H       1  LIG1        0.0655
     45 H          10.9190    3.9886   -1.3808 H       1  LIG1        0.1166
     46 H          11.9789    2.9457   -2.3590 H       1  LIG1        0.1166
     47 H           4.9823   -4.8594    1.8700 H       1  LIG1        0.0626
     48 H           7.9092   -2.1386    3.4958 H       1  LIG1        0.0626
     49 H           5.6005   -6.5293    3.5688 H       1  LIG1        0.0654
     50 H           8.5343   -3.8136    5.1723 H       1  LIG1        0.0654
     51 H           3.1049    5.5396    2.3642 H       1  LIG1        0.0660
     52 H           3.6308    5.4070    4.0416 H       1  LIG1        0.0660
     53 H           2.7195    4.0631    3.2545 H       1  LIG1        0.0660
     54 H           5.1936   -0.9403    7.0861 H       1  LIG1        0.0660
     55 H           6.4223   -0.9065    5.8182 H       1  LIG1        0.0660
     56 H           4.7194   -1.4015    5.4494 H       1  LIG1        0.0660
     57 H           3.7991    3.8721    7.1342 H       1  LIG1        0.0660
     58 H           5.0850    2.6726    7.1005 H       1  LIG1        0.0660
     59 H           3.3851    2.2448    6.6123 H       1  LIG1        0.0660
     60 H           8.3624   -8.0278    5.6641 H       1  LIG1        0.0660
     61 H           8.1834   -7.5298    3.9762 H       1  LIG1        0.0660
     62 H           6.7447   -8.0134    4.9507 H       1  LIG1        0.0660
@<TRIPOS>BOND
     1     1    19    1
     2     1    28    1
     3     2    28    1
     4     2    21    1
     5     3    22    1
     6     3    34    1
     7     4    23    1
     8     4    35    1
     9     5    25    1
    10     5    36    1
    11     6    15    2
    12     7    27   ar
    13     8    27   ar
    14     9    33    1
    15     9    37    1
    16    10    11    1
    17    10    12    1
    18    11    13    2
    19    11    15    1
    20    12    16   ar
    21    12    17   ar
    22    13    14    1
    23    13    27    1
    24    14    20   ar
    25    14    18   ar
    26    15    24    1
    27    16    23   ar
    28    17    22   ar
    29    18    19   ar
    30    19    21   ar
    31    20    26   ar
    32    21    26   ar
    33    22    25   ar
    34    23    25   ar
    35    24    29   ar
    36    24    30   ar
    37    29    31   ar
    38    30    32   ar
    39    31    33   ar
    40    32    33   ar
    41    10    38    1
    42    10    39    1
    43    16    40    1
    44    17    41    1
    45    18    42    1
    46    20    43    1
    47    26    44    1
    48    28    45    1
    49    28    46    1
    50    29    47    1
    51    30    48    1
    52    31    49    1
    53    32    50    1
    54    34    51    1
    55    34    52    1
    56    34    53    1
    57    35    54    1
    58    35    55    1
    59    35    56    1
    60    36    57    1
    61    36    58    1
    62    36    59    1
    63    37    60    1
    64    37    61    1
    65    37    62    1
@<TRIPOS>MOLECULE
9871593
 62 65 0 0 0
SMALL
GASTEIGER

@<TRIPOS>ATOM
      1 O          11.1204    2.1797    1.5966 O.3     1  LIG1       -0.4526
      2 O          12.3149    1.6237   -0.4261 O.3     1  LIG1       -0.4526
      3 O           4.5408    0.9650    5.6319 O.3     1  LIG1       -0.4913
      4 O           3.1640    3.9113    2.1080 O.3     1  LIG1       -0.4913
      5 O           2.9896    3.2594    4.6134 O.3     1  LIG1       -0.4885
      6 O           6.3347   -2.5337    3.2440 O.2     1  LIG1       -0.2870
      7 O           9.4193   -3.4337    1.8476 O.co2   1  LIG1       -0.5446
      8 O           7.5829   -3.8788    0.5487 O.co2   1  LIG1       -0.5446
      9 O           0.3214   -2.8946    1.4733 O.3     1  LIG1       -0.4951
     10 C           6.3033    0.2346    1.0685 C.3     1  LIG1        0.0021
     11 C           6.7670   -1.1706    1.3730 C.2     1  LIG1        0.0135
     12 C           5.4646    0.9906    2.0785 C.ar    1  LIG1       -0.0358
     13 C           8.0219   -1.6238    1.1241 C.2     1  LIG1        0.0117
     14 C           9.1574   -0.7961    0.6681 C.ar    1  LIG1       -0.0121
     15 C           5.8993   -2.1065    2.1689 C.2     1  LIG1        0.1901
     16 C           4.6932    2.0713    1.6254 C.ar    1  LIG1       -0.0126
     17 C           5.4610    0.7088    3.4449 C.ar    1  LIG1       -0.0126
     18 C           9.5701    0.3050    1.4406 C.ar    1  LIG1       -0.0084
     19 C          10.6273    1.0657    0.9901 C.ar    1  LIG1        0.1668
     20 C           9.8690   -1.1154   -0.5091 C.ar    1  LIG1       -0.0503
     21 C          11.3034    0.7514   -0.1642 C.ar    1  LIG1        0.1663
     22 C           4.5949    1.3785    4.3230 C.ar    1  LIG1        0.1654
     23 C           3.9141    2.8282    2.5094 C.ar    1  LIG1        0.1654
     24 C           4.4628   -2.3759    1.8669 C.ar    1  LIG1        0.0222
     25 C           3.8345    2.4693    3.8721 C.ar    1  LIG1        0.2035
     26 C          10.9572   -0.3400   -0.9305 C.ar    1  LIG1       -0.0156
     27 C           8.3636   -3.1375    1.2225 C.2     1  LIG1        0.0726
     28 C          12.1911    2.5209    0.6964 C.3     1  LIG1        0.2332
     29 C           3.7491   -1.8489    0.7922 C.ar    1  LIG1       -0.0475
     30 C           3.7697   -3.1780    2.7926 C.ar    1  LIG1       -0.0475
     31 C           2.3611   -2.0468    0.7037 C.ar    1  LIG1       -0.0193
     32 C           2.3924   -3.3946    2.6917 C.ar    1  LIG1       -0.0193
     33 C           1.6744   -2.8042    1.6581 C.ar    1  LIG1        0.1201
     34 C           4.2209   -0.4267    5.7394 C.3     1  LIG1        0.0790
     35 C           3.6082    4.5854    0.9372 C.3     1  LIG1        0.0790
     36 C           2.8587    3.0140    6.0022 C.3     1  LIG1        0.0791
     37 C          -0.4058   -3.6200    2.4589 C.3     1  LIG1        0.0788
     38 H           5.7428    0.1858    0.1265 H       1  LIG1        0.0363
     39 H           7.1439    0.8958    0.8394 H       1  LIG1        0.0363
     40 H           4.7150    2.3092    0.5660 H       1  LIG1        0.0658
     41 H           6.1232   -0.0577    3.8419 H       1  LIG1        0.0658
     42 H           9.0745    0.5512    2.3736 H       1  LIG1        0.0661
     43 H           9.5860   -1.9960   -1.0845 H       1  LIG1        0.0625
     44 H          11.5135   -0.6011   -1.8221 H       1  LIG1        0.0655
     45 H          13.1336    2.5185    1.2559 H       1  LIG1        0.1166
     46 H          12.0156    3.5334    0.3139 H       1  LIG1        0.1166
     47 H           4.2356   -1.2759    0.0142 H       1  LIG1        0.0626
     48 H           4.3108   -3.6411    3.6177 H       1  LIG1        0.0626
     49 H           1.8095   -1.5971   -0.1181 H       1  LIG1        0.0654
     50 H           1.9242   -4.0197    3.4435 H       1  LIG1        0.0654
     51 H           3.8331   -0.6003    6.7477 H       1  LIG1        0.0660
     52 H           5.1153   -1.0444    5.6145 H       1  LIG1        0.0660
     53 H           3.4407   -0.7231    5.0280 H       1  LIG1        0.0660
     54 H           3.0978    5.5524    0.8937 H       1  LIG1        0.0660
     55 H           3.3311    4.0243    0.0392 H       1  LIG1        0.0660
     56 H           4.6861    4.7812    0.9625 H       1  LIG1        0.0660
     57 H           2.1819    3.7728    6.4079 H       1  LIG1        0.0660
     58 H           3.8145    3.1264    6.5232 H       1  LIG1        0.0660
     59 H           2.3956    2.0403    6.1895 H       1  LIG1        0.0660
     60 H          -1.4693   -3.5519    2.2108 H       1  LIG1        0.0660
     61 H          -0.2724   -3.1868    3.4565 H       1  LIG1        0.0660
     62 H          -0.1283   -4.6794    2.4486 H       1  LIG1        0.0660
@<TRIPOS>BOND
     1     1    19    1
     2     1    28    1
     3     2    28    1
     4     2    21    1
     5     3    22    1
     6     3    34    1
     7     4    23    1
     8     4    35    1
     9     5    25    1
    10     5    36    1
    11     6    15    2
    12     7    27   ar
    13     8    27   ar
    14     9    33    1
    15     9    37    1
    16    10    11    1
    17    10    12    1
    18    11    13    2
    19    11    15    1
    20    12    16   ar
    21    12    17   ar
    22    13    14    1
    23    13    27    1
    24    14    20   ar
    25    14    18   ar
    26    15    24    1
    27    16    23   ar
    28    17    22   ar
    29    18    19   ar
    30    19    21   ar
    31    20    26   ar
    32    21    26   ar
    33    22    25   ar
    34    23    25   ar
    35    24    29   ar
    36    24    30   ar
    37    29    31   ar
    38    30    32   ar
    39    31    33   ar
    40    32    33   ar
    41    10    38    1
    42    10    39    1
    43    16    40    1
    44    17    41    1
    45    18    42    1
    46    20    43    1
    47    26    44    1
    48    28    45    1
    49    28    46    1
    50    29    47    1
    51    30    48    1
    52    31    49    1
    53    32    50    1
    54    34    51    1
    55    34    52    1
    56    34    53    1
    57    35    54    1
    58    35    55    1
    59    35    56    1
    60    36    57    1
    61    36    58    1
    62    36    59    1
    63    37    60    1
    64    37    61    1
    65    37    62    1
@<TRIPOS>MOLECULE
9871593
 62 65 0 0 0
SMALL
GASTEIGER

@<TRIPOS>ATOM
      1 O           9.9689    2.3508   -1.7151 O.3     1  LIG1       -0.4526
      2 O          11.8748    2.4795   -0.2390 O.3     1  LIG1       -0.4526
      3 O           5.7405    4.6696    2.1314 O.3     1  LIG1       -0.4913
      4 O           7.2836    1.6066    5.5938 O.3     1  LIG1       -0.4913
      5 O           6.5305    4.2764    4.7887 O.3     1  LIG1       -0.4885
      6 O           4.7714   -2.4699    1.2608 O.2     1  LIG1       -0.2870
      7 O           9.6379   -3.3434    1.1634 O.co2   1  LIG1       -0.5446
      8 O           7.9338   -3.6942   -0.3235 O.co2   1  LIG1       -0.5446
      9 O           7.7412   -6.2038    5.4420 O.3     1  LIG1       -0.4951
     10 C           6.1286    0.0165    0.9988 C.3     1  LIG1        0.0021
     11 C           6.8495   -1.3104    1.1206 C.2     1  LIG1        0.0135
     12 C           6.3770    1.0975    2.0304 C.ar    1  LIG1       -0.0358
     13 C           8.1151   -1.5592    0.7024 C.2     1  LIG1        0.0117
     14 C           9.1275   -0.5253    0.4176 C.ar    1  LIG1       -0.0121
     15 C           5.9555   -2.4291    1.6000 C.2     1  LIG1        0.1901
     16 C           6.7942    0.8393    3.3380 C.ar    1  LIG1       -0.0126
     17 C           6.0504    2.4161    1.6946 C.ar    1  LIG1       -0.0126
     18 C           8.9988    0.3834   -0.6407 C.ar    1  LIG1       -0.0084
     19 C           9.9627    1.3643   -0.7755 C.ar    1  LIG1        0.1668
     20 C          10.2535   -0.4291    1.2729 C.ar    1  LIG1       -0.0503
     21 C          11.0480    1.4449    0.0676 C.ar    1  LIG1        0.1663
     22 C           6.1545    3.4541    2.6253 C.ar    1  LIG1        0.1654
     23 C           6.9034    1.8634    4.2993 C.ar    1  LIG1        0.1654
     24 C           6.4373   -3.4040    2.6294 C.ar    1  LIG1        0.0222
     25 C           6.5664    3.1910    3.9482 C.ar    1  LIG1        0.2035
     26 C          11.2327    0.5505    1.0941 C.ar    1  LIG1       -0.0156
     27 C           8.6248   -3.0096    0.4810 C.2     1  LIG1        0.0726
     28 C          11.1512    3.0786   -1.3314 C.3     1  LIG1        0.2332
     29 C           5.7509   -4.6189    2.7564 C.ar    1  LIG1       -0.0475
     30 C           7.5061   -3.1393    3.4953 C.ar    1  LIG1       -0.0475
     31 C           6.1568   -5.5738    3.6950 C.ar    1  LIG1       -0.0193
     32 C           7.9110   -4.0936    4.4333 C.ar    1  LIG1       -0.0193
     33 C           7.2571   -5.3205    4.5139 C.ar    1  LIG1        0.1201
     34 C           6.5367    5.7859    2.5117 C.3     1  LIG1        0.0790
     35 C           7.7451    0.2987    5.9119 C.3     1  LIG1        0.0790
     36 C           7.1241    4.1946    6.0727 C.3     1  LIG1        0.0791
     37 C           7.7798   -7.5494    4.9741 C.3     1  LIG1        0.0788
     38 H           5.0422   -0.1411    0.9878 H       1  LIG1        0.0363
     39 H           6.3380    0.4297    0.0047 H       1  LIG1        0.0363
     40 H           7.0028   -0.1887    3.6032 H       1  LIG1        0.0658
     41 H           5.6899    2.6450    0.6931 H       1  LIG1        0.0658
     42 H           8.1685    0.3286   -1.3342 H       1  LIG1        0.0661
     43 H          10.3767   -1.1522    2.0797 H       1  LIG1        0.0625
     44 H          12.0986    0.5976    1.7422 H       1  LIG1        0.0655
     45 H          10.8575    4.0939   -1.0352 H       1  LIG1        0.1166
     46 H          11.8189    3.1479   -2.1971 H       1  LIG1        0.1166
     47 H           4.9101   -4.8334    2.1001 H       1  LIG1        0.0626
     48 H           8.0789   -2.2210    3.4201 H       1  LIG1        0.0626
     49 H           5.6068   -6.5056    3.7607 H       1  LIG1        0.0654
     50 H           8.7751   -3.8955    5.0613 H       1  LIG1        0.0654
     51 H           6.4795    6.5217    1.7035 H       1  LIG1        0.0660
     52 H           7.5922    5.5283    2.6496 H       1  LIG1        0.0660
     53 H           6.1230    6.2581    3.4077 H       1  LIG1        0.0660
     54 H           8.0894    0.3127    6.9504 H       1  LIG1        0.0660
     55 H           8.5962    0.0115    5.2853 H       1  LIG1        0.0660
     56 H           6.9319   -0.4309    5.8441 H       1  LIG1        0.0660
     57 H           7.1314    5.2052    6.4936 H       1  LIG1        0.0660
     58 H           8.1657    3.8632    6.0183 H       1  LIG1        0.0660
     59 H           6.5231    3.5752    6.7453 H       1  LIG1        0.0660
     60 H           8.4794   -8.1033    5.6082 H       1  LIG1        0.0660
     61 H           8.1416   -7.6177    3.9414 H       1  LIG1        0.0660
     62 H           6.7959   -8.0179    5.0737 H       1  LIG1        0.0660
@<TRIPOS>BOND
     1     1    19    1
     2     1    28    1
     3     2    28    1
     4     2    21    1
     5     3    22    1
     6     3    34    1
     7     4    23    1
     8     4    35    1
     9     5    25    1
    10     5    36    1
    11     6    15    2
    12     7    27   ar
    13     8    27   ar
    14     9    33    1
    15     9    37    1
    16    10    11    1
    17    10    12    1
    18    11    13    2
    19    11    15    1
    20    12    16   ar
    21    12    17   ar
    22    13    14    1
    23    13    27    1
    24    14    20   ar
    25    14    18   ar
    26    15    24    1
    27    16    23   ar
    28    17    22   ar
    29    18    19   ar
    30    19    21   ar
    31    20    26   ar
    32    21    26   ar
    33    22    25   ar
    34    23    25   ar
    35    24    29   ar
    36    24    30   ar
    37    29    31   ar
    38    30    32   ar
    39    31    33   ar
    40    32    33   ar
    41    10    38    1
    42    10    39    1
    43    16    40    1
    44    17    41    1
    45    18    42    1
    46    20    43    1
    47    26    44    1
    48    28    45    1
    49    28    46    1
    50    29    47    1
    51    30    48    1
    52    31    49    1
    53    32    50    1
    54    34    51    1
    55    34    52    1
    56    34    53    1
    57    35    54    1
    58    35    55    1
    59    35    56    1
    60    36    57    1
    61    36    58    1
    62    36    59    1
    63    37    60    1
    64    37    61    1
    65    37    62    1
@<TRIPOS>MOLECULE
9871593
 62 65 0 0 0
SMALL
GASTEIGER

@<TRIPOS>ATOM
      1 O          10.0820    1.9064   -2.0035 O.3     1  LIG1       -0.4526
      2 O          11.8849    2.1841   -0.4226 O.3     1  LIG1       -0.4526
      3 O           7.4887    1.8888    5.5413 O.3     1  LIG1       -0.4913
      4 O           3.7801    3.9152    3.3270 O.3     1  LIG1       -0.4913
      5 O           5.3493    3.8267    5.3930 O.3     1  LIG1       -0.4885
      6 O           6.5934   -2.4075    3.2064 O.2     1  LIG1       -0.2870
      7 O           9.3769   -3.4740    1.2005 O.co2   1  LIG1       -0.5446
      8 O           7.3085   -3.7977    0.2682 O.co2   1  LIG1       -0.5446
      9 O           0.3902   -2.3905    2.1858 O.3     1  LIG1       -0.4951
     10 C           6.2324    0.2822    1.0195 C.3     1  LIG1        0.0021
     11 C           6.7628   -1.1139    1.2262 C.2     1  LIG1        0.0135
     12 C           5.9999    1.1416    2.2398 C.ar    1  LIG1       -0.0358
     13 C           7.9521   -1.5860    0.7834 C.2     1  LIG1        0.0117
     14 C           9.0580   -0.7067    0.3679 C.ar    1  LIG1       -0.0121
     15 C           6.0214   -1.9915    2.1969 C.2     1  LIG1        0.1901
     16 C           4.9558    2.0752    2.2268 C.ar    1  LIG1       -0.0126
     17 C           6.8647    1.1108    3.3369 C.ar    1  LIG1       -0.0126
     18 C           9.0215    0.0627   -0.8028 C.ar    1  LIG1       -0.0084
     19 C          10.0117    1.0114   -0.9787 C.ar    1  LIG1        0.1668
     20 C          10.1334   -0.5380    1.2763 C.ar    1  LIG1       -0.0503
     21 C          11.0385    1.1761   -0.0756 C.ar    1  LIG1        0.1663
     22 C           6.6768    1.9581    4.4365 C.ar    1  LIG1        0.1654
     23 C           4.7683    2.9568    3.2947 C.ar    1  LIG1        0.1654
     24 C           4.5481   -2.1404    2.1035 C.ar    1  LIG1        0.0222
     25 C           5.6461    2.9184    4.4011 C.ar    1  LIG1        0.2035
     26 C          11.1434    0.3992    1.0536 C.ar    1  LIG1       -0.0156
     27 C           8.2436   -3.1079    0.7835 C.2     1  LIG1        0.0726
     28 C          11.2226    2.6896   -1.5982 C.3     1  LIG1        0.2332
     29 C           3.8552   -2.1263    0.8905 C.ar    1  LIG1       -0.0475
     30 C           3.8377   -2.2998    3.3025 C.ar    1  LIG1       -0.0475
     31 C           2.4550   -2.2022    0.8866 C.ar    1  LIG1       -0.0193
     32 C           2.4470   -2.3911    3.2947 C.ar    1  LIG1       -0.0193
     33 C           1.7525   -2.3072    2.0905 C.ar    1  LIG1        0.1201
     34 C           8.0510    0.6071    5.8191 C.3     1  LIG1        0.0790
     35 C           2.7422    3.8099    2.3627 C.3     1  LIG1        0.0790
     36 C           6.4073    4.2406    6.2434 C.3     1  LIG1        0.0791
     37 C          -0.3017   -1.4937    1.3239 C.3     1  LIG1        0.0788
     38 H           5.2913    0.1961    0.4619 H       1  LIG1        0.0363
     39 H           6.8770    0.8708    0.3611 H       1  LIG1        0.0363
     40 H           4.3144    2.1115    1.3519 H       1  LIG1        0.0658
     41 H           7.6965    0.4086    3.3143 H       1  LIG1        0.0658
     42 H           8.2150   -0.0400   -1.5169 H       1  LIG1        0.0661
     43 H          10.1703   -1.1580    2.1734 H       1  LIG1        0.0625
     44 H          11.9576    0.5184    1.7558 H       1  LIG1        0.0655
     45 H          10.8888    3.7144   -1.3926 H       1  LIG1        0.1166
     46 H          11.9437    2.7162   -2.4215 H       1  LIG1        0.1166
     47 H           4.3991   -2.0833   -0.0502 H       1  LIG1        0.0626
     48 H           4.3732   -2.3473    4.2490 H       1  LIG1        0.0626
     49 H           1.9364   -2.2085   -0.0667 H       1  LIG1        0.0654
     50 H           1.9093   -2.5122    4.2305 H       1  LIG1        0.0654
     51 H           8.4205    0.6266    6.8487 H       1  LIG1        0.0660
     52 H           8.9061    0.4079    5.1656 H       1  LIG1        0.0660
     53 H           7.3017   -0.1891    5.7491 H       1  LIG1        0.0660
     54 H           1.9825    4.5590    2.6058 H       1  LIG1        0.0660
     55 H           2.2616    2.8262    2.3976 H       1  LIG1        0.0660
     56 H           3.1146    4.0336    1.3576 H       1  LIG1        0.0660
     57 H           6.1067    5.1865    6.7057 H       1  LIG1        0.0660
     58 H           7.3358    4.4295    5.6945 H       1  LIG1        0.0660
     59 H           6.5509    3.5209    7.0543 H       1  LIG1        0.0660
     60 H          -1.3321   -1.4140    1.6866 H       1  LIG1        0.0660
     61 H          -0.3356   -1.8842    0.3030 H       1  LIG1        0.0660
     62 H           0.1365   -0.4898    1.3456 H       1  LIG1        0.0660
@<TRIPOS>BOND
     1     1    19    1
     2     1    28    1
     3     2    28    1
     4     2    21    1
     5     3    22    1
     6     3    34    1
     7     4    23    1
     8     4    35    1
     9     5    25    1
    10     5    36    1
    11     6    15    2
    12     7    27   ar
    13     8    27   ar
    14     9    33    1
    15     9    37    1
    16    10    11    1
    17    10    12    1
    18    11    13    2
    19    11    15    1
    20    12    16   ar
    21    12    17   ar
    22    13    14    1
    23    13    27    1
    24    14    20   ar
    25    14    18   ar
    26    15    24    1
    27    16    23   ar
    28    17    22   ar
    29    18    19   ar
    30    19    21   ar
    31    20    26   ar
    32    21    26   ar
    33    22    25   ar
    34    23    25   ar
    35    24    29   ar
    36    24    30   ar
    37    29    31   ar
    38    30    32   ar
    39    31    33   ar
    40    32    33   ar
    41    10    38    1
    42    10    39    1
    43    16    40    1
    44    17    41    1
    45    18    42    1
    46    20    43    1
    47    26    44    1
    48    28    45    1
    49    28    46    1
    50    29    47    1
    51    30    48    1
    52    31    49    1
    53    32    50    1
    54    34    51    1
    55    34    52    1
    56    34    53    1
    57    35    54    1
    58    35    55    1
    59    35    56    1
    60    36    57    1
    61    36    58    1
    62    36    59    1
    63    37    60    1
    64    37    61    1
    65    37    62    1
@<TRIPOS>MOLECULE
9871593
 62 65 0 0 0
SMALL
GASTEIGER

@<TRIPOS>ATOM
      1 O          10.0626    1.9373   -1.9949 O.3     1  LIG1       -0.4526
      2 O          11.8391    2.2607   -0.3926 O.3     1  LIG1       -0.4526
      3 O           7.7503    2.1342    5.3461 O.3     1  LIG1       -0.4913
      4 O           3.9376    3.9895    3.2029 O.3     1  LIG1       -0.4913
      5 O           5.6750    4.0449    5.1578 O.3     1  LIG1       -0.4885
      6 O           6.6636   -2.9297    2.9056 O.2     1  LIG1       -0.2870
      7 O           7.5282   -3.7967   -0.0051 O.co2   1  LIG1       -0.5446
      8 O           9.4852   -3.4544    1.1433 O.co2   1  LIG1       -0.5446
      9 O           0.5822   -1.4018    3.3598 O.3     1  LIG1       -0.4951
     10 C           6.2178    0.1730    1.0342 C.3     1  LIG1        0.0021
     11 C           6.7825   -1.2101    1.2414 C.2     1  LIG1        0.0135
     12 C           6.0359    1.0764    2.2311 C.ar    1  LIG1       -0.0358
     13 C           7.9880   -1.6140    0.7707 C.2     1  LIG1        0.0117
     14 C           9.0626   -0.6831    0.3778 C.ar    1  LIG1       -0.0121
     15 C           6.0545   -2.1635    2.1579 C.2     1  LIG1        0.1901
     16 C           5.0110    2.0343    2.1956 C.ar    1  LIG1       -0.0126
     17 C           6.9508    1.0969    3.2912 C.ar    1  LIG1       -0.0126
     18 C           9.0223    0.0827   -0.7936 C.ar    1  LIG1       -0.0084
     19 C           9.9944    1.0505   -0.9629 C.ar    1  LIG1        0.1668
     20 C          10.1207   -0.4859    1.3003 C.ar    1  LIG1       -0.0503
     21 C          11.0057    1.2424   -0.0477 C.ar    1  LIG1        0.1663
     22 C           6.8488    2.0472    4.3144 C.ar    1  LIG1        0.1654
     23 C           4.8997    3.0059    3.1893 C.ar    1  LIG1        0.1654
     24 C           4.6064   -1.9992    2.4274 C.ar    1  LIG1        0.0222
     25 C           5.8151    3.0070    4.2616 C.ar    1  LIG1        0.2035
     26 C          11.1111    0.4755    1.0864 C.ar    1  LIG1       -0.0156
     27 C           8.3664   -3.1159    0.6644 C.2     1  LIG1        0.0726
     28 C          11.1943    2.7336   -1.5902 C.3     1  LIG1        0.2332
     29 C           3.6473   -1.8245    1.4319 C.ar    1  LIG1       -0.0475
     30 C           4.2078   -2.0331    3.7719 C.ar    1  LIG1       -0.0475
     31 C           2.3081   -1.6237    1.7937 C.ar    1  LIG1       -0.0193
     32 C           2.8717   -1.8456    4.1276 C.ar    1  LIG1       -0.0193
     33 C           1.9153   -1.6230    3.1387 C.ar    1  LIG1        0.1201
     34 C           8.6551    1.0468    5.5098 C.3     1  LIG1        0.0790
     35 C           3.1110    4.1074    2.0530 C.3     1  LIG1        0.0790
     36 C           5.8034    3.6825    6.5270 C.3     1  LIG1        0.0791
     37 C           0.1629   -1.3712    4.7202 C.3     1  LIG1        0.0788
     38 H           5.2597    0.0688    0.5115 H       1  LIG1        0.0363
     39 H           6.8209    0.7511    0.3280 H       1  LIG1        0.0363
     40 H           4.3257    2.0149    1.3538 H       1  LIG1        0.0658
     41 H           7.7651    0.3774    3.2724 H       1  LIG1        0.0658
     42 H           8.2309   -0.0470   -1.5218 H       1  LIG1        0.0661
     43 H          10.1661   -1.1107    2.1936 H       1  LIG1        0.0625
     44 H          11.9166    0.6122    1.7972 H       1  LIG1        0.0655
     45 H          10.8544    3.7625   -1.4176 H       1  LIG1        0.1166
     46 H          11.9278    2.7417   -2.4038 H       1  LIG1        0.1166
     47 H           3.9279   -1.8522    0.3826 H       1  LIG1        0.0626
     48 H           4.9513   -2.2031    4.5493 H       1  LIG1        0.0626
     49 H           1.5605   -1.4711    1.0192 H       1  LIG1        0.0654
     50 H           2.6230   -1.8796    5.1820 H       1  LIG1        0.0654
     51 H           9.2013    1.2083    6.4438 H       1  LIG1        0.0660
     52 H           9.3890    1.0223    4.6976 H       1  LIG1        0.0660
     53 H           8.1234    0.0935    5.5983 H       1  LIG1        0.0660
     54 H           2.4642    4.9793    2.1926 H       1  LIG1        0.0660
     55 H           2.4647    3.2307    1.9410 H       1  LIG1        0.0660
     56 H           3.7054    4.2797    1.1490 H       1  LIG1        0.0660
     57 H           5.1697    4.3617    7.1062 H       1  LIG1        0.0660
     58 H           6.8323    3.8342    6.8619 H       1  LIG1        0.0660
     59 H           5.4643    2.6597    6.7311 H       1  LIG1        0.0660
     60 H          -0.9080   -1.1480    4.7376 H       1  LIG1        0.0660
     61 H           0.6745   -0.5792    5.2781 H       1  LIG1        0.0660
     62 H           0.3069   -2.3465    5.1978 H       1  LIG1        0.0660
@<TRIPOS>BOND
     1     1    19    1
     2     1    28    1
     3     2    28    1
     4     2    21    1
     5     3    22    1
     6     3    34    1
     7     4    23    1
     8     4    35    1
     9     5    25    1
    10     5    36    1
    11     6    15    2
    12     7    27   ar
    13     8    27   ar
    14     9    33    1
    15     9    37    1
    16    10    11    1
    17    10    12    1
    18    11    13    2
    19    11    15    1
    20    12    16   ar
    21    12    17   ar
    22    13    14    1
    23    13    27    1
    24    14    20   ar
    25    14    18   ar
    26    15    24    1
    27    16    23   ar
    28    17    22   ar
    29    18    19   ar
    30    19    21   ar
    31    20    26   ar
    32    21    26   ar
    33    22    25   ar
    34    23    25   ar
    35    24    29   ar
    36    24    30   ar
    37    29    31   ar
    38    30    32   ar
    39    31    33   ar
    40    32    33   ar
    41    10    38    1
    42    10    39    1
    43    16    40    1
    44    17    41    1
    45    18    42    1
    46    20    43    1
    47    26    44    1
    48    28    45    1
    49    28    46    1
    50    29    47    1
    51    30    48    1
    52    31    49    1
    53    32    50    1
    54    34    51    1
    55    34    52    1
    56    34    53    1
    57    35    54    1
    58    35    55    1
    59    35    56    1
    60    36    57    1
    61    36    58    1
    62    36    59    1
    63    37    60    1
    64    37    61    1
    65    37    62    1
@<TRIPOS>MOLECULE
9871593
 62 65 0 0 0
SMALL
GASTEIGER

@<TRIPOS>ATOM
      1 O          11.9310    1.2249    1.5611 O.3     1  LIG1       -0.4526
      2 O          12.5905    0.8544   -0.7319 O.3     1  LIG1       -0.4526
      3 O           7.7084    4.3155    3.2116 O.3     1  LIG1       -0.4913
      4 O           8.8775    3.7376   -1.3591 O.3     1  LIG1       -0.4913
      5 O           8.9193    5.2096    0.8337 O.3     1  LIG1       -0.4885
      6 O           6.3449   -1.9417    3.5747 O.2     1  LIG1       -0.2870
      7 O           9.3003   -3.4483    2.0196 O.co2   1  LIG1       -0.5446
      8 O           7.3159   -3.8937    0.9620 O.co2   1  LIG1       -0.5446
      9 O           0.4043   -2.6951    1.5009 O.3     1  LIG1       -0.4951
     10 C           6.1873    0.2234    0.9318 C.3     1  LIG1        0.0021
     11 C           6.7693   -1.0771    1.4114 C.2     1  LIG1        0.0135
     12 C           7.0092    1.4894    0.9511 C.ar    1  LIG1       -0.0358
     13 C           7.9761   -1.6333    1.1705 C.2     1  LIG1        0.0117
     14 C           9.1415   -0.9672    0.5813 C.ar    1  LIG1       -0.0121
     15 C           5.9240   -1.8046    2.4225 C.2     1  LIG1        0.1901
     16 C           7.6058    1.9696   -0.2275 C.ar    1  LIG1       -0.0126
     17 C           7.0920    2.2550    2.1200 C.ar    1  LIG1       -0.0126
     18 C           9.9252   -0.1500    1.4160 C.ar    1  LIG1       -0.0084
     19 C          11.0589    0.4243    0.8912 C.ar    1  LIG1        0.1668
     20 C           9.5313   -1.1828   -0.7559 C.ar    1  LIG1       -0.0503
     21 C          11.4332    0.2112   -0.4155 C.ar    1  LIG1        0.1663
     22 C           7.7036    3.5113    2.0983 C.ar    1  LIG1        0.1654
     23 C           8.2751    3.1977   -0.2482 C.ar    1  LIG1        0.1654
     24 C           4.4981   -2.1302    2.1366 C.ar    1  LIG1        0.0222
     25 C           8.3288    3.9686    0.9262 C.ar    1  LIG1        0.2035
     26 C          10.6916   -0.5875   -1.2663 C.ar    1  LIG1       -0.0156
     27 C           8.2193   -3.1412    1.4483 C.2     1  LIG1        0.0726
     28 C          12.9255    1.4406    0.5437 C.3     1  LIG1        0.2332
     29 C           3.6634   -2.3747    3.2379 C.ar    1  LIG1       -0.0475
     30 C           3.9482   -2.1493    0.8544 C.ar    1  LIG1       -0.0475
     31 C           2.2913   -2.5814    3.0711 C.ar    1  LIG1       -0.0193
     32 C           2.5688   -2.3398    0.6908 C.ar    1  LIG1       -0.0193
     33 C           1.7339   -2.5461    1.7948 C.ar    1  LIG1        0.1201
     34 C           6.4082    4.4871    3.7722 C.3     1  LIG1        0.0790
     35 C           8.9976    2.8991   -2.5006 C.3     1  LIG1        0.0790
     36 C           9.9327    5.4142    1.8140 C.3     1  LIG1        0.0791
     37 C          -0.4562   -2.9905    2.5949 C.3     1  LIG1        0.0788
     38 H           5.2760    0.4553    1.4998 H       1  LIG1        0.0363
     39 H           5.8255    0.0649   -0.0932 H       1  LIG1        0.0363
     40 H           7.5282    1.3581   -1.1212 H       1  LIG1        0.0658
     41 H           6.6506    1.8711    3.0356 H       1  LIG1        0.0658
     42 H           9.6606   -0.0065    2.4589 H       1  LIG1        0.0661
     43 H           8.9448   -1.8490   -1.3834 H       1  LIG1        0.0625
     44 H          11.0117   -0.7638   -2.2820 H       1  LIG1        0.0655
     45 H          13.8759    1.0134    0.8861 H       1  LIG1        0.1166
     46 H          13.0586    2.5202    0.4084 H       1  LIG1        0.1166
     47 H           4.0842   -2.3944    4.2416 H       1  LIG1        0.0626
     48 H           4.5767   -2.0263   -0.0228 H       1  LIG1        0.0626
     49 H           1.6972   -2.7571    3.9601 H       1  LIG1        0.0654
     50 H           2.1439   -2.3322   -0.3098 H       1  LIG1        0.0654
     51 H           6.4273    5.3912    4.3881 H       1  LIG1        0.0660
     52 H           6.1537    3.6446    4.4228 H       1  LIG1        0.0660
     53 H           5.6420    4.6256    3.0002 H       1  LIG1        0.0660
     54 H           9.5757    3.4429   -3.2545 H       1  LIG1        0.0660
     55 H           8.0158    2.6800   -2.9325 H       1  LIG1        0.0660
     56 H           9.5416    1.9807   -2.2673 H       1  LIG1        0.0660
     57 H          10.7091    6.0389    1.3622 H       1  LIG1        0.0660
     58 H          10.4057    4.4828    2.1474 H       1  LIG1        0.0660
     59 H           9.5223    5.9657    2.6651 H       1  LIG1        0.0660
     60 H          -1.4742   -3.0841    2.2051 H       1  LIG1        0.0660
     61 H          -0.4588   -2.1794    3.3313 H       1  LIG1        0.0660
     62 H          -0.1881   -3.9453    3.0601 H       1  LIG1        0.0660
@<TRIPOS>BOND
     1     1    19    1
     2     1    28    1
     3     2    28    1
     4     2    21    1
     5     3    22    1
     6     3    34    1
     7     4    23    1
     8     4    35    1
     9     5    25    1
    10     5    36    1
    11     6    15    2
    12     7    27   ar
    13     8    27   ar
    14     9    33    1
    15     9    37    1
    16    10    11    1
    17    10    12    1
    18    11    13    2
    19    11    15    1
    20    12    16   ar
    21    12    17   ar
    22    13    14    1
    23    13    27    1
    24    14    20   ar
    25    14    18   ar
    26    15    24    1
    27    16    23   ar
    28    17    22   ar
    29    18    19   ar
    30    19    21   ar
    31    20    26   ar
    32    21    26   ar
    33    22    25   ar
    34    23    25   ar
    35    24    29   ar
    36    24    30   ar
    37    29    31   ar
    38    30    32   ar
    39    31    33   ar
    40    32    33   ar
    41    10    38    1
    42    10    39    1
    43    16    40    1
    44    17    41    1
    45    18    42    1
    46    20    43    1
    47    26    44    1
    48    28    45    1
    49    28    46    1
    50    29    47    1
    51    30    48    1
    52    31    49    1
    53    32    50    1
    54    34    51    1
    55    34    52    1
    56    34    53    1
    57    35    54    1
    58    35    55    1
    59    35    56    1
    60    36    57    1
    61    36    58    1
    62    36    59    1
    63    37    60    1
    64    37    61    1
    65    37    62    1
@<TRIPOS>MOLECULE
9871593
 62 65 0 0 0
SMALL
GASTEIGER

@<TRIPOS>ATOM
      1 O          10.1461    2.0450   -1.9532 O.3     1  LIG1       -0.4526
      2 O          11.8868    2.4621   -0.3339 O.3     1  LIG1       -0.4526
      3 O           2.4904    2.5710    2.9118 O.3     1  LIG1       -0.4913
      4 O           6.7073    2.4545    5.1240 O.3     1  LIG1       -0.4913
      5 O           3.9525    3.3246    4.8871 O.3     1  LIG1       -0.4885
      6 O           4.7468   -2.3496    1.1352 O.2     1  LIG1       -0.2870
      7 O           8.0939   -3.7680   -0.0653 O.co2   1  LIG1       -0.5446
      8 O           9.6669   -3.2704    1.5243 O.co2   1  LIG1       -0.5446
      9 O           7.5397   -6.0591    5.4868 O.3     1  LIG1       -0.4951
     10 C           6.2029    0.0554    0.7976 C.3     1  LIG1        0.0021
     11 C           6.8712   -1.2717    1.0757 C.2     1  LIG1        0.0135
     12 C           5.6281    0.8139    1.9753 C.ar    1  LIG1       -0.0358
     13 C           8.1666   -1.5579    0.7983 C.2     1  LIG1        0.0117
     14 C           9.1963   -0.5541    0.4680 C.ar    1  LIG1       -0.0121
     15 C           5.9077   -2.3318    1.5471 C.2     1  LIG1        0.1901
     16 C           6.4362    1.2211    3.0432 C.ar    1  LIG1       -0.0126
     17 C           4.2946    1.2388    1.9326 C.ar    1  LIG1       -0.0126
     18 C           9.1494    0.1896   -0.7198 C.ar    1  LIG1       -0.0084
     19 C          10.0867    1.1875   -0.8972 C.ar    1  LIG1        0.1668
     20 C          10.2282   -0.3004    1.4034 C.ar    1  LIG1       -0.0503
     21 C          11.0766    1.4308    0.0278 C.ar    1  LIG1        0.1663
     22 C           3.7776    2.0802    2.9208 C.ar    1  LIG1        0.1654
     23 C           5.9367    2.0483    4.0641 C.ar    1  LIG1        0.1654
     24 C           6.3089   -3.2866    2.6217 C.ar    1  LIG1        0.0222
     25 C           4.5990    2.4978    3.9952 C.ar    1  LIG1        0.2035
     26 C          11.1882    0.6903    1.1811 C.ar    1  LIG1       -0.0156
     27 C           8.7054   -3.0130    0.7432 C.2     1  LIG1        0.0726
     28 C          11.2548    2.8776   -1.5607 C.3     1  LIG1        0.2332
     29 C           5.7324   -4.5630    2.6240 C.ar    1  LIG1       -0.0475
     30 C           7.2216   -2.9461    3.6271 C.ar    1  LIG1       -0.0475
     31 C           6.1138   -5.5110    3.5794 C.ar    1  LIG1       -0.0193
     32 C           7.6047   -3.8972    4.5781 C.ar    1  LIG1       -0.0193
     33 C           7.0770   -5.1876    4.5361 C.ar    1  LIG1        0.1201
     34 C           1.6599    2.2160    1.8151 C.3     1  LIG1        0.0790
     35 C           8.0220    1.9258    5.2397 C.3     1  LIG1        0.0790
     36 C           4.6999    4.0139    5.8725 C.3     1  LIG1        0.0791
     37 C           7.7192   -7.3890    5.0054 C.3     1  LIG1        0.0788
     38 H           5.4115   -0.1230    0.0560 H       1  LIG1        0.0363
     39 H           6.8704    0.7617    0.2970 H       1  LIG1        0.0363
     40 H           7.4716    0.8926    3.0362 H       1  LIG1        0.0658
     41 H           3.6842    0.9113    1.0966 H       1  LIG1        0.0658
     42 H           8.3836    0.0079   -1.4657 H       1  LIG1        0.0661
     43 H          10.2904   -0.9074    2.3066 H       1  LIG1        0.0625
     44 H          11.9842    0.8653    1.8934 H       1  LIG1        0.0655
     45 H          10.8924    3.9050   -1.4327 H       1  LIG1        0.1166
     46 H          12.0023    2.8688   -2.3617 H       1  LIG1        0.1166
     47 H           5.0120   -4.8293    1.8547 H       1  LIG1        0.0626
     48 H           7.6828   -1.9640    3.6535 H       1  LIG1        0.0626
     49 H           5.6591   -6.4943    3.5453 H       1  LIG1        0.0654
     50 H           8.3569   -3.6430    5.3193 H       1  LIG1        0.0654
     51 H           0.6950    2.7145    1.9518 H       1  LIG1        0.0660
     52 H           1.4758    1.1372    1.7925 H       1  LIG1        0.0660
     53 H           2.0795    2.5689    0.8668 H       1  LIG1        0.0660
     54 H           8.4575    2.3219    6.1623 H       1  LIG1        0.0660
     55 H           8.6545    2.2566    4.4094 H       1  LIG1        0.0660
     56 H           8.0056    0.8343    5.3222 H       1  LIG1        0.0660
     57 H           4.0259    4.7297    6.3545 H       1  LIG1        0.0660
     58 H           5.5187    4.5925    5.4334 H       1  LIG1        0.0660
     59 H           5.0465    3.3289    6.6518 H       1  LIG1        0.0660
     60 H           8.3932   -7.9061    5.6958 H       1  LIG1        0.0660
     61 H           8.1814   -7.4105    4.0117 H       1  LIG1        0.0660
     62 H           6.7665   -7.9275    5.0043 H       1  LIG1        0.0660
@<TRIPOS>BOND
     1     1    19    1
     2     1    28    1
     3     2    28    1
     4     2    21    1
     5     3    22    1
     6     3    34    1
     7     4    23    1
     8     4    35    1
     9     5    25    1
    10     5    36    1
    11     6    15    2
    12     7    27   ar
    13     8    27   ar
    14     9    33    1
    15     9    37    1
    16    10    11    1
    17    10    12    1
    18    11    13    2
    19    11    15    1
    20    12    16   ar
    21    12    17   ar
    22    13    14    1
    23    13    27    1
    24    14    20   ar
    25    14    18   ar
    26    15    24    1
    27    16    23   ar
    28    17    22   ar
    29    18    19   ar
    30    19    21   ar
    31    20    26   ar
    32    21    26   ar
    33    22    25   ar
    34    23    25   ar
    35    24    29   ar
    36    24    30   ar
    37    29    31   ar
    38    30    32   ar
    39    31    33   ar
    40    32    33   ar
    41    10    38    1
    42    10    39    1
    43    16    40    1
    44    17    41    1
    45    18    42    1
    46    20    43    1
    47    26    44    1
    48    28    45    1
    49    28    46    1
    50    29    47    1
    51    30    48    1
    52    31    49    1
    53    32    50    1
    54    34    51    1
    55    34    52    1
    56    34    53    1
    57    35    54    1
    58    35    55    1
    59    35    56    1
    60    36    57    1
    61    36    58    1
    62    36    59    1
    63    37    60    1
    64    37    61    1
    65    37    62    1
@<TRIPOS>MOLECULE
9871593
 62 65 0 0 0
SMALL
GASTEIGER

@<TRIPOS>ATOM
      1 O          10.4884    0.4379   -2.7303 O.3     1  LIG1       -0.4526
      2 O          11.9150    1.7018   -1.2466 O.3     1  LIG1       -0.4526
      3 O           7.6664    4.2974    3.2858 O.3     1  LIG1       -0.4913
      4 O           8.1460    3.8819   -1.5694 O.3     1  LIG1       -0.4913
      5 O           8.4984    5.4653    0.8204 O.3     1  LIG1       -0.4885
      6 O           6.3755   -1.8998    3.4922 O.2     1  LIG1       -0.2870
      7 O           9.4332   -3.1126    1.8980 O.co2   1  LIG1       -0.5446
      8 O           7.4643   -3.7588    0.9174 O.co2   1  LIG1       -0.5446
      9 O           0.4020   -2.9904    1.9369 O.3     1  LIG1       -0.4951
     10 C           6.0424    0.3206    0.9232 C.3     1  LIG1        0.0021
     11 C           6.6932   -0.9712    1.3424 C.2     1  LIG1        0.0135
     12 C           6.8147    1.6160    0.9337 C.ar    1  LIG1       -0.0358
     13 C           7.9267   -1.4438    1.0575 C.2     1  LIG1        0.0117
     14 C           9.0049   -0.6643    0.4405 C.ar    1  LIG1       -0.0121
     15 C           5.9150   -1.7710    2.3529 C.2     1  LIG1        0.1901
     16 C           7.2192    2.2133   -0.2683 C.ar    1  LIG1       -0.0126
     17 C           7.0365    2.3034    2.1278 C.ar    1  LIG1       -0.0126
     18 C           9.1815   -0.5968   -0.9451 C.ar    1  LIG1       -0.0084
     19 C          10.1858    0.2234   -1.4204 C.ar    1  LIG1        0.1668
     20 C           9.8641    0.0633    1.2994 C.ar    1  LIG1       -0.0503
     21 C          11.0050    0.9456   -0.5752 C.ar    1  LIG1        0.1663
     22 C           7.5850    3.5933    2.1084 C.ar    1  LIG1        0.1654
     23 C           7.8416    3.4691   -0.2963 C.ar    1  LIG1        0.1654
     24 C           4.5039   -2.1956    2.1027 C.ar    1  LIG1        0.0222
     25 C           8.0262    4.1787    0.9034 C.ar    1  LIG1        0.2035
     26 C          10.8754    0.8804    0.7924 C.ar    1  LIG1       -0.0156
     27 C           8.3136   -2.9177    1.3496 C.2     1  LIG1        0.0726
     28 C          11.5700    1.3807   -2.6096 C.3     1  LIG1        0.2332
     29 C           3.8344   -2.0225    0.8882 C.ar    1  LIG1       -0.0475
     30 C           3.7938   -2.7318    3.1888 C.ar    1  LIG1       -0.0475
     31 C           2.4560   -2.2745    0.7945 C.ar    1  LIG1       -0.0193
     32 C           2.4289   -3.0106    3.0865 C.ar    1  LIG1       -0.0193
     33 C           1.7462   -2.7393    1.9033 C.ar    1  LIG1        0.1201
     34 C           6.3725    4.5184    3.8490 C.3     1  LIG1        0.0790
     35 C           9.2173    4.8022   -1.7146 C.3     1  LIG1        0.0790
     36 C           9.3968    5.8608    1.8517 C.3     1  LIG1        0.0791
     37 C          -0.3867   -2.2125    1.0450 C.3     1  LIG1        0.0788
     38 H           5.1531    0.5058    1.5411 H       1  LIG1        0.0363
     39 H           5.6441    0.1722   -0.0898 H       1  LIG1        0.0363
     40 H           7.0582    1.6903   -1.2100 H       1  LIG1        0.0658
     41 H           6.7425    1.8458    3.0684 H       1  LIG1        0.0658
     42 H           8.5511   -1.1615   -1.6202 H       1  LIG1        0.0661
     43 H           9.7337   -0.0266    2.3771 H       1  LIG1        0.0625
     44 H          11.5271    1.4365    1.4541 H       1  LIG1        0.0655
     45 H          11.2874    2.3063   -3.1208 H       1  LIG1        0.1166
     46 H          12.4563    0.9654   -3.1023 H       1  LIG1        0.1166
     47 H           4.3646   -1.6904    0.0018 H       1  LIG1        0.0626
     48 H           4.3052   -2.9232    4.1310 H       1  LIG1        0.0626
     49 H           1.9673   -2.1103   -0.1602 H       1  LIG1        0.0654
     50 H           1.8992   -3.4149    3.9434 H       1  LIG1        0.0654
     51 H           6.4487    5.3666    4.5358 H       1  LIG1        0.0660
     52 H           6.0504    3.6460    4.4265 H       1  LIG1        0.0660
     53 H           5.6273    4.7719    3.0863 H       1  LIG1        0.0660
     54 H           9.5758    4.7308   -2.7466 H       1  LIG1        0.0660
     55 H          10.0634    4.5657   -1.0597 H       1  LIG1        0.0660
     56 H           8.8637    5.8266   -1.5669 H       1  LIG1        0.0660
     57 H          10.0817    6.6006    1.4255 H       1  LIG1        0.0660
     58 H          10.0021    5.0321    2.2332 H       1  LIG1        0.0660
     59 H           8.8466    6.3579    2.6568 H       1  LIG1        0.0660
     60 H          -1.4349   -2.3279    1.3400 H       1  LIG1        0.0660
     61 H          -0.2887   -2.5765    0.0192 H       1  LIG1        0.0660
     62 H          -0.1406   -1.1462    1.1114 H       1  LIG1        0.0660
@<TRIPOS>BOND
     1     1    19    1
     2     1    28    1
     3     2    28    1
     4     2    21    1
     5     3    22    1
     6     3    34    1
     7     4    23    1
     8     4    35    1
     9     5    25    1
    10     5    36    1
    11     6    15    2
    12     7    27   ar
    13     8    27   ar
    14     9    33    1
    15     9    37    1
    16    10    11    1
    17    10    12    1
    18    11    13    2
    19    11    15    1
    20    12    16   ar
    21    12    17   ar
    22    13    14    1
    23    13    27    1
    24    14    20   ar
    25    14    18   ar
    26    15    24    1
    27    16    23   ar
    28    17    22   ar
    29    18    19   ar
    30    19    21   ar
    31    20    26   ar
    32    21    26   ar
    33    22    25   ar
    34    23    25   ar
    35    24    29   ar
    36    24    30   ar
    37    29    31   ar
    38    30    32   ar
    39    31    33   ar
    40    32    33   ar
    41    10    38    1
    42    10    39    1
    43    16    40    1
    44    17    41    1
    45    18    42    1
    46    20    43    1
    47    26    44    1
    48    28    45    1
    49    28    46    1
    50    29    47    1
    51    30    48    1
    52    31    49    1
    53    32    50    1
    54    34    51    1
    55    34    52    1
    56    34    53    1
    57    35    54    1
    58    35    55    1
    59    35    56    1
    60    36    57    1
    61    36    58    1
    62    36    59    1
    63    37    60    1
    64    37    61    1
    65    37    62    1
@<TRIPOS>MOLECULE
9871593
 62 65 0 0 0
SMALL
GASTEIGER

@<TRIPOS>ATOM
      1 O          10.0481    1.9144   -1.9494 O.3     1  LIG1       -0.4526
      2 O          11.9162    2.1454   -0.4383 O.3     1  LIG1       -0.4526
      3 O           3.8504    4.1159    2.5659 O.3     1  LIG1       -0.4913
      4 O           5.4956    1.0932    6.0399 O.3     1  LIG1       -0.4913
      5 O           4.1279    3.4155    5.4085 O.3     1  LIG1       -0.4885
      6 O           6.4252   -2.6937    3.0433 O.2     1  LIG1       -0.2870
      7 O           7.3772   -3.7609    0.0959 O.co2   1  LIG1       -0.5446
      8 O           9.3647   -3.5349    1.2162 O.co2   1  LIG1       -0.5446
      9 O           0.3172   -1.9252    1.5990 O.3     1  LIG1       -0.4951
     10 C           6.3631    0.3052    1.1798 C.3     1  LIG1        0.0021
     11 C           6.8002   -1.1356    1.2947 C.2     1  LIG1        0.0135
     12 C           5.7292    1.0282    2.3473 C.ar    1  LIG1       -0.0358
     13 C           7.9893   -1.6061    0.8449 C.2     1  LIG1        0.0117
     14 C           9.0979   -0.7342    0.4161 C.ar    1  LIG1       -0.0121
     15 C           5.9495   -2.0960    2.0746 C.2     1  LIG1        0.1901
     16 C           5.9204    0.6744    3.6826 C.ar    1  LIG1       -0.0126
     17 C           5.0097    2.2007    2.0673 C.ar    1  LIG1       -0.0126
     18 C           9.0206    0.0597   -0.7378 C.ar    1  LIG1       -0.0084
     19 C          10.0121    1.0008   -0.9393 C.ar    1  LIG1        0.1668
     20 C          10.2082   -0.5942    1.2828 C.ar    1  LIG1       -0.0503
     21 C          11.0757    1.1389   -0.0763 C.ar    1  LIG1        0.1663
     22 C           4.4697    3.0055    3.0771 C.ar    1  LIG1        0.1654
     23 C           5.3396    1.4253    4.7143 C.ar    1  LIG1        0.1654
     24 C           4.4768   -2.1255    1.8907 C.ar    1  LIG1        0.0222
     25 C           4.6169    2.6038    4.4133 C.ar    1  LIG1        0.2035
     26 C          11.2171    0.3395    1.0342 C.ar    1  LIG1       -0.0156
     27 C           8.2708   -3.1261    0.7387 C.2     1  LIG1        0.0726
     28 C          11.2155    2.6758   -1.5796 C.3     1  LIG1        0.2332
     29 C           3.6980   -2.4217    3.0201 C.ar    1  LIG1       -0.0475
     30 C           3.8447   -1.8496    0.6795 C.ar    1  LIG1       -0.0475
     31 C           2.3043   -2.3766    2.9640 C.ar    1  LIG1       -0.0193
     32 C           2.4448   -1.8041    0.6261 C.ar    1  LIG1       -0.0193
     33 C           1.6714   -2.0395    1.7696 C.ar    1  LIG1        0.1201
     34 C           3.2430    5.0363    3.4546 C.3     1  LIG1        0.0790
     35 C           5.7153   -0.2909    6.3084 C.3     1  LIG1        0.0790
     36 C           3.2320    2.7501    6.2947 C.3     1  LIG1        0.0791
     37 C          -0.4609   -1.8764    2.7900 C.3     1  LIG1        0.0788
     38 H           5.6640    0.3516    0.3335 H       1  LIG1        0.0363
     39 H           7.2036    0.9471    0.8980 H       1  LIG1        0.0363
     40 H           6.5514   -0.1804    3.9111 H       1  LIG1        0.0658
     41 H           4.8928    2.5201    1.0316 H       1  LIG1        0.0658
     42 H           8.1819   -0.0209   -1.4187 H       1  LIG1        0.0661
     43 H          10.2726   -1.2291    2.1675 H       1  LIG1        0.0625
     44 H          12.0593    0.4410    1.7063 H       1  LIG1        0.0655
     45 H          10.9049    3.7025   -1.3495 H       1  LIG1        0.1166
     46 H          11.9030    2.7026   -2.4317 H       1  LIG1        0.1166
     47 H           4.1845   -2.6778    3.9592 H       1  LIG1        0.0626
     48 H           4.4255   -1.6810   -0.2229 H       1  LIG1        0.0626
     49 H           1.7527   -2.6101    3.8676 H       1  LIG1        0.0654
     50 H           1.9530   -1.5754   -0.3159 H       1  LIG1        0.0654
     51 H           2.8124    5.8408    2.8494 H       1  LIG1        0.0660
     52 H           3.9781    5.4955    4.1223 H       1  LIG1        0.0660
     53 H           2.4182    4.5708    4.0020 H       1  LIG1        0.0660
     54 H           5.5369   -0.4530    7.3760 H       1  LIG1        0.0660
     55 H           6.7526   -0.5681    6.0988 H       1  LIG1        0.0660
     56 H           5.0138   -0.9277    5.7578 H       1  LIG1        0.0660
     57 H           2.4646    3.4731    6.5889 H       1  LIG1        0.0660
     58 H           3.7597    2.4453    7.2029 H       1  LIG1        0.0660
     59 H           2.7254    1.8953    5.8324 H       1  LIG1        0.0660
     60 H          -1.4916   -1.6384    2.5097 H       1  LIG1        0.0660
     61 H          -0.1119   -1.0865    3.4651 H       1  LIG1        0.0660
     62 H          -0.4688   -2.8486    3.2932 H       1  LIG1        0.0660
@<TRIPOS>BOND
     1     1    19    1
     2     1    28    1
     3     2    28    1
     4     2    21    1
     5     3    22    1
     6     3    34    1
     7     4    23    1
     8     4    35    1
     9     5    25    1
    10     5    36    1
    11     6    15    2
    12     7    27   ar
    13     8    27   ar
    14     9    33    1
    15     9    37    1
    16    10    11    1
    17    10    12    1
    18    11    13    2
    19    11    15    1
    20    12    16   ar
    21    12    17   ar
    22    13    14    1
    23    13    27    1
    24    14    20   ar
    25    14    18   ar
    26    15    24    1
    27    16    23   ar
    28    17    22   ar
    29    18    19   ar
    30    19    21   ar
    31    20    26   ar
    32    21    26   ar
    33    22    25   ar
    34    23    25   ar
    35    24    29   ar
    36    24    30   ar
    37    29    31   ar
    38    30    32   ar
    39    31    33   ar
    40    32    33   ar
    41    10    38    1
    42    10    39    1
    43    16    40    1
    44    17    41    1
    45    18    42    1
    46    20    43    1
    47    26    44    1
    48    28    45    1
    49    28    46    1
    50    29    47    1
    51    30    48    1
    52    31    49    1
    53    32    50    1
    54    34    51    1
    55    34    52    1
    56    34    53    1
    57    35    54    1
    58    35    55    1
    59    35    56    1
    60    36    57    1
    61    36    58    1
    62    36    59    1
    63    37    60    1
    64    37    61    1
    65    37    62    1
@<TRIPOS>MOLECULE
9871593
 62 65 0 0 0
SMALL
GASTEIGER

@<TRIPOS>ATOM
      1 O          10.2827    0.6637   -2.7234 O.3     1  LIG1       -0.4526
      2 O          11.5598    1.9887   -1.1608 O.3     1  LIG1       -0.4526
      3 O           4.9946   -1.5794   -3.6078 O.3     1  LIG1       -0.4913
      4 O           5.3182    3.2266   -2.8890 O.3     1  LIG1       -0.4913
      5 O           4.7808    1.0535   -4.6609 O.3     1  LIG1       -0.4885
      6 O           6.4844   -2.3105    3.3512 O.2     1  LIG1       -0.2870
      7 O           9.5121   -3.2178    1.6850 O.co2   1  LIG1       -0.5446
      8 O           7.5453   -3.9760    0.7826 O.co2   1  LIG1       -0.5446
      9 O           0.2455   -2.3361    2.6001 O.3     1  LIG1       -0.4951
     10 C           6.0587    0.1183    0.8608 C.3     1  LIG1        0.0021
     11 C           6.6215   -1.2297    1.2417 C.2     1  LIG1        0.0135
     12 C           5.7708    0.3469   -0.6204 C.ar    1  LIG1       -0.0358
     13 C           7.8745   -1.6442    0.9354 C.2     1  LIG1        0.0117
     14 C           8.8918   -0.7437    0.3708 C.ar    1  LIG1       -0.0121
     15 C           5.8953   -2.0101    2.3100 C.2     1  LIG1        0.1901
     16 C           5.6577    1.6604   -1.0938 C.ar    1  LIG1       -0.0126
     17 C           5.5772   -0.6919   -1.5414 C.ar    1  LIG1       -0.0126
     18 C           9.0776   -0.5881   -1.0075 C.ar    1  LIG1       -0.0084
     19 C           9.9944    0.3545   -1.4285 C.ar    1  LIG1        0.1668
     20 C           9.6579    0.0317    1.2754 C.ar    1  LIG1       -0.0503
     21 C          10.7235    1.1134   -0.5394 C.ar    1  LIG1        0.1663
     22 C           5.2489   -0.4415   -2.8818 C.ar    1  LIG1        0.1654
     23 C           5.3787    1.9276   -2.4443 C.ar    1  LIG1        0.1654
     24 C           4.4135   -2.1864    2.2821 C.ar    1  LIG1        0.0222
     25 C           5.1120    0.8772   -3.3411 C.ar    1  LIG1        0.2035
     26 C          10.5865    0.9703    0.8222 C.ar    1  LIG1       -0.0156
     27 C           8.3556   -3.0894    1.1940 C.2     1  LIG1        0.0726
     28 C          11.2936    1.6733   -2.5413 C.3     1  LIG1        0.2332
     29 C           3.6441   -2.1566    1.1192 C.ar    1  LIG1       -0.0475
     30 C           3.7576   -2.3615    3.5110 C.ar    1  LIG1       -0.0475
     31 C           2.2438   -2.2008    1.1847 C.ar    1  LIG1       -0.0193
     32 C           2.3637   -2.4297    3.5767 C.ar    1  LIG1       -0.0193
     33 C           1.6010   -2.3062    2.4180 C.ar    1  LIG1        0.1201
     34 C           5.5091   -1.5910   -4.9333 C.3     1  LIG1        0.0790
     35 C           6.4849    3.9781   -2.5566 C.3     1  LIG1        0.0790
     36 C           3.8706    2.1094   -4.9406 C.3     1  LIG1        0.0791
     37 C          -0.5056   -1.6011    1.6399 C.3     1  LIG1        0.0788
     38 H           6.7600    0.8925    1.2008 H       1  LIG1        0.0363
     39 H           5.1299    0.3202    1.4072 H       1  LIG1        0.0363
     40 H           5.7953    2.4824   -0.3967 H       1  LIG1        0.0658
     41 H           5.7049   -1.7313   -1.2395 H       1  LIG1        0.0658
     42 H           8.5154   -1.1797   -1.7199 H       1  LIG1        0.0661
     43 H           9.5292   -0.1271    2.3459 H       1  LIG1        0.0625
     44 H          11.1760    1.5532    1.5182 H       1  LIG1        0.0655
     45 H          10.9682    2.5892   -3.0484 H       1  LIG1        0.1166
     46 H          12.2244    1.3293   -3.0071 H       1  LIG1        0.1166
     47 H           4.1131   -2.1159    0.1465 H       1  LIG1        0.0626
     48 H           4.3367   -2.4349    4.4301 H       1  LIG1        0.0626
     49 H           1.6865   -2.1685    0.2541 H       1  LIG1        0.0654
     50 H           1.8769   -2.5574    4.5393 H       1  LIG1        0.0654
     51 H           5.7072   -2.6339   -5.2013 H       1  LIG1        0.0660
     52 H           6.4508   -1.0399   -5.0273 H       1  LIG1        0.0660
     53 H           4.7570   -1.2151   -5.6335 H       1  LIG1        0.0660
     54 H           6.5469    4.8198   -3.2531 H       1  LIG1        0.0660
     55 H           7.4027    3.3878   -2.6602 H       1  LIG1        0.0660
     56 H           6.3988    4.3880   -1.5455 H       1  LIG1        0.0660
     57 H           3.3112    1.8327   -5.8401 H       1  LIG1        0.0660
     58 H           4.4181    3.0281   -5.1712 H       1  LIG1        0.0660
     59 H           3.1435    2.2691   -4.1372 H       1  LIG1        0.0660
     60 H          -1.5227   -1.4893    2.0283 H       1  LIG1        0.0660
     61 H          -0.5680   -2.1451    0.6928 H       1  LIG1        0.0660
     62 H          -0.0956   -0.5957    1.4905 H       1  LIG1        0.0660
@<TRIPOS>BOND
     1     1    19    1
     2     1    28    1
     3     2    28    1
     4     2    21    1
     5     3    22    1
     6     3    34    1
     7     4    23    1
     8     4    35    1
     9     5    25    1
    10     5    36    1
    11     6    15    2
    12     7    27   ar
    13     8    27   ar
    14     9    33    1
    15     9    37    1
    16    10    11    1
    17    10    12    1
    18    11    13    2
    19    11    15    1
    20    12    16   ar
    21    12    17   ar
    22    13    14    1
    23    13    27    1
    24    14    20   ar
    25    14    18   ar
    26    15    24    1
    27    16    23   ar
    28    17    22   ar
    29    18    19   ar
    30    19    21   ar
    31    20    26   ar
    32    21    26   ar
    33    22    25   ar
    34    23    25   ar
    35    24    29   ar
    36    24    30   ar
    37    29    31   ar
    38    30    32   ar
    39    31    33   ar
    40    32    33   ar
    41    10    38    1
    42    10    39    1
    43    16    40    1
    44    17    41    1
    45    18    42    1
    46    20    43    1
    47    26    44    1
    48    28    45    1
    49    28    46    1
    50    29    47    1
    51    30    48    1
    52    31    49    1
    53    32    50    1
    54    34    51    1
    55    34    52    1
    56    34    53    1
    57    35    54    1
    58    35    55    1
    59    35    56    1
    60    36    57    1
    61    36    58    1
    62    36    59    1
    63    37    60    1
    64    37    61    1
    65    37    62    1
@<TRIPOS>MOLECULE
9871593
 62 65 0 0 0
SMALL
GASTEIGER

@<TRIPOS>ATOM
      1 O          10.0887    2.1985   -1.9142 O.3     1  LIG1       -0.4526
      2 O          11.8903    2.5358   -0.3447 O.3     1  LIG1       -0.4526
      3 O           4.3492    4.1573    2.4759 O.3     1  LIG1       -0.4913
      4 O           5.1135    0.6377    5.8018 O.3     1  LIG1       -0.4913
      5 O           4.1520    3.2835    5.2006 O.3     1  LIG1       -0.4885
      6 O           4.8569   -2.5003    1.1287 O.2     1  LIG1       -0.2870
      7 O           8.1686   -3.6722   -0.2564 O.co2   1  LIG1       -0.5446
      8 O           9.7259   -3.2470    1.3668 O.co2   1  LIG1       -0.5446
      9 O           7.4583   -6.1248    5.6065 O.3     1  LIG1       -0.4951
     10 C           6.1766    0.0257    0.9389 C.3     1  LIG1        0.0021
     11 C           6.9088   -1.2909    1.1072 C.2     1  LIG1        0.0135
     12 C           5.7338    0.8287    2.1495 C.ar    1  LIG1       -0.0358
     13 C           8.1960   -1.5211    0.7497 C.2     1  LIG1        0.0117
     14 C           9.1963   -0.4823    0.4400 C.ar    1  LIG1       -0.0121
     15 C           6.0166   -2.4299    1.5377 C.2     1  LIG1        0.1901
     16 C           5.6888    0.3501    3.4577 C.ar    1  LIG1       -0.0126
     17 C           5.2585    2.1268    1.9224 C.ar    1  LIG1       -0.0126
     18 C           9.1106    0.3112   -0.7123 C.ar    1  LIG1       -0.0084
     19 C          10.0523    1.3065   -0.8858 C.ar    1  LIG1        0.1668
     20 C          10.2605   -0.2687    1.3489 C.ar    1  LIG1       -0.0503
     21 C          11.0771    1.5055    0.0117 C.ar    1  LIG1        0.1663
     22 C           4.7622    2.9367    2.9547 C.ar    1  LIG1        0.1654
     23 C           5.1758    1.1247    4.5183 C.ar    1  LIG1        0.1654
     24 C           6.4587   -3.3687    2.6194 C.ar    1  LIG1        0.0222
     25 C           4.7065    2.4387    4.2734 C.ar    1  LIG1        0.2035
     26 C          11.2203    0.7227    1.1325 C.ar    1  LIG1       -0.0156
     27 C           8.7665   -2.9575    0.5944 C.2     1  LIG1        0.0726
     28 C          11.2266    2.9974   -1.5371 C.3     1  LIG1        0.2332
     29 C           5.7830   -4.5849    2.7676 C.ar    1  LIG1       -0.0475
     30 C           7.4739   -3.0502    3.5309 C.ar    1  LIG1       -0.0475
     31 C           6.1428   -5.4759    3.7859 C.ar    1  LIG1       -0.0193
     32 C           7.8404   -3.9468    4.5411 C.ar    1  LIG1       -0.0193
     33 C           7.1833   -5.1690    4.6656 C.ar    1  LIG1        0.1201
     34 C           4.0988    5.2089    3.3931 C.3     1  LIG1        0.0790
     35 C           5.3684   -0.7465    6.0133 C.3     1  LIG1        0.0790
     36 C           4.1154    2.9328    6.5724 C.3     1  LIG1        0.0791
     37 C           8.7163   -6.0040    6.2620 C.3     1  LIG1        0.0788
     38 H           5.2768   -0.1616    0.3356 H       1  LIG1        0.0363
     39 H           6.7744    0.7068    0.3260 H       1  LIG1        0.0363
     40 H           6.0466   -0.6511    3.6453 H       1  LIG1        0.0658
     41 H           5.2640    2.5255    0.9079 H       1  LIG1        0.0658
     42 H           8.3215    0.1595   -1.4405 H       1  LIG1        0.0661
     43 H          10.3518   -0.9099    2.2248 H       1  LIG1        0.0625
     44 H          12.0417    0.8646    1.8231 H       1  LIG1        0.0655
     45 H          10.8910    4.0279   -1.3696 H       1  LIG1        0.1166
     46 H          11.9476    2.9948   -2.3622 H       1  LIG1        0.1166
     47 H           4.9896   -4.8512    2.0729 H       1  LIG1        0.0626
     48 H           8.0291   -2.1194    3.4505 H       1  LIG1        0.0626
     49 H           5.6251   -6.4270    3.8719 H       1  LIG1        0.0654
     50 H           8.6583   -3.6615    5.1934 H       1  LIG1        0.0654
     51 H           3.9979    6.1324    2.8134 H       1  LIG1        0.0660
     52 H           4.9335    5.3547    4.0865 H       1  LIG1        0.0660
     53 H           3.1489    5.0557    3.9145 H       1  LIG1        0.0660
     54 H           5.1479   -0.9666    7.0625 H       1  LIG1        0.0660
     55 H           6.4246   -0.9783    5.8438 H       1  LIG1        0.0660
     56 H           4.7138   -1.3746    5.4000 H       1  LIG1        0.0660
     57 H           3.6996    3.7873    7.1164 H       1  LIG1        0.0660
     58 H           5.1199    2.7608    6.9713 H       1  LIG1        0.0660
     59 H           3.4427    2.0878    6.7488 H       1  LIG1        0.0660
     60 H           8.8732   -6.9101    6.8550 H       1  LIG1        0.0660
     61 H           8.7158   -5.1534    6.9519 H       1  LIG1        0.0660
     62 H           9.5409   -5.9301    5.5442 H       1  LIG1        0.0660
@<TRIPOS>BOND
     1     1    19    1
     2     1    28    1
     3     2    28    1
     4     2    21    1
     5     3    22    1
     6     3    34    1
     7     4    23    1
     8     4    35    1
     9     5    25    1
    10     5    36    1
    11     6    15    2
    12     7    27   ar
    13     8    27   ar
    14     9    33    1
    15     9    37    1
    16    10    11    1
    17    10    12    1
    18    11    13    2
    19    11    15    1
    20    12    16   ar
    21    12    17   ar
    22    13    14    1
    23    13    27    1
    24    14    20   ar
    25    14    18   ar
    26    15    24    1
    27    16    23   ar
    28    17    22   ar
    29    18    19   ar
    30    19    21   ar
    31    20    26   ar
    32    21    26   ar
    33    22    25   ar
    34    23    25   ar
    35    24    29   ar
    36    24    30   ar
    37    29    31   ar
    38    30    32   ar
    39    31    33   ar
    40    32    33   ar
    41    10    38    1
    42    10    39    1
    43    16    40    1
    44    17    41    1
    45    18    42    1
    46    20    43    1
    47    26    44    1
    48    28    45    1
    49    28    46    1
    50    29    47    1
    51    30    48    1
    52    31    49    1
    53    32    50    1
    54    34    51    1
    55    34    52    1
    56    34    53    1
    57    35    54    1
    58    35    55    1
    59    35    56    1
    60    36    57    1
    61    36    58    1
    62    36    59    1
    63    37    60    1
    64    37    61    1
    65    37    62    1
@<TRIPOS>MOLECULE
9871593
 62 65 0 0 0
SMALL
GASTEIGER

@<TRIPOS>ATOM
      1 O          10.9240    2.4296    1.4159 O.3     1  LIG1       -0.4526
      2 O          12.3040    1.6496   -0.4047 O.3     1  LIG1       -0.4526
      3 O           2.6931    1.6676   -2.2451 O.3     1  LIG1       -0.4913
      4 O           6.4497   -0.9099   -3.9609 O.3     1  LIG1       -0.4913
      5 O           4.0279    0.3463   -4.4535 O.3     1  LIG1       -0.4885
      6 O           6.2946   -2.1863    3.4171 O.2     1  LIG1       -0.2870
      7 O           7.5258   -3.7884    0.7871 O.co2   1  LIG1       -0.5446
      8 O           9.3624   -3.2548    2.0496 O.co2   1  LIG1       -0.5446
      9 O           0.2259   -2.2846    1.8141 O.3     1  LIG1       -0.4951
     10 C           6.1151    0.2471    0.8852 C.3     1  LIG1        0.0021
     11 C           6.6765   -1.0814    1.3470 C.2     1  LIG1        0.0135
     12 C           5.5739    0.2603   -0.5401 C.ar    1  LIG1       -0.0358
     13 C           7.9588   -1.5020    1.2064 C.2     1  LIG1        0.0117
     14 C           9.0945   -0.6913    0.7172 C.ar    1  LIG1       -0.0121
     15 C           5.8365   -1.8794    2.3146 C.2     1  LIG1        0.1901
     16 C           6.2728   -0.3420   -1.5968 C.ar    1  LIG1       -0.0126
     17 C           4.3817    0.9304   -0.8416 C.ar    1  LIG1       -0.0126
     18 C           9.4119    0.5177    1.3616 C.ar    1  LIG1       -0.0084
     19 C          10.4950    1.2409    0.9095 C.ar    1  LIG1        0.1668
     20 C           9.9182   -1.1392   -0.3393 C.ar    1  LIG1       -0.0503
     21 C          11.2790    0.7988   -0.1289 C.ar    1  LIG1        0.1663
     22 C           3.8790    0.9805   -2.1517 C.ar    1  LIG1        0.1654
     23 C           5.7776   -0.3389   -2.9066 C.ar    1  LIG1        0.1654
     24 C           4.3784   -2.0726    2.0954 C.ar    1  LIG1        0.0222
     25 C           4.5590    0.3114   -3.1853 C.ar    1  LIG1        0.2035
     26 C          11.0211   -0.3915   -0.7721 C.ar    1  LIG1       -0.0156
     27 C           8.2989   -3.0025    1.4211 C.2     1  LIG1        0.0726
     28 C          12.0867    2.6624    0.5985 C.3     1  LIG1        0.2332
     29 C           3.5622   -2.1474    3.2359 C.ar    1  LIG1       -0.0475
     30 C           3.7912   -2.1663    0.8322 C.ar    1  LIG1       -0.0475
     31 C           2.1761   -2.2381    3.1172 C.ar    1  LIG1       -0.0193
     32 C           2.3964   -2.2274    0.7115 C.ar    1  LIG1       -0.0193
     33 C           1.5934   -2.2305    1.8547 C.ar    1  LIG1        0.1201
     34 C           2.4005    2.2764   -3.4961 C.3     1  LIG1        0.0790
     35 C           7.4305   -1.8928   -3.6354 C.3     1  LIG1        0.0790
     36 C           3.8805   -0.9397   -5.0528 C.3     1  LIG1        0.0791
     37 C          -0.3330   -1.2610    0.9940 C.3     1  LIG1        0.0788
     38 H           6.8602    1.0455    0.9472 H       1  LIG1        0.0363
     39 H           5.3218    0.5601    1.5770 H       1  LIG1        0.0363
     40 H           7.2180   -0.8248   -1.3787 H       1  LIG1        0.0658
     41 H           3.8263    1.4280   -0.0491 H       1  LIG1        0.0658
     42 H           8.8410    0.8651    2.2151 H       1  LIG1        0.0661
     43 H           9.7159   -2.1026   -0.8066 H       1  LIG1        0.0625
     44 H          11.6611   -0.7518   -1.5674 H       1  LIG1        0.0655
     45 H          12.9682    2.7088    1.2490 H       1  LIG1        0.1166
     46 H          11.9726    3.6304    0.0970 H       1  LIG1        0.1166
     47 H           4.0118   -2.1267    4.2274 H       1  LIG1        0.0626
     48 H           4.4084   -2.2057   -0.0614 H       1  LIG1        0.0626
     49 H           1.5576   -2.2914    4.0081 H       1  LIG1        0.0654
     50 H           1.9552   -2.2906   -0.2788 H       1  LIG1        0.0654
     51 H           1.6617    3.0633   -3.3142 H       1  LIG1        0.0660
     52 H           1.9389    1.5549   -4.1767 H       1  LIG1        0.0660
     53 H           3.2794    2.7533   -3.9437 H       1  LIG1        0.0660
     54 H           7.7061   -2.4044   -4.5629 H       1  LIG1        0.0660
     55 H           7.0352   -2.6470   -2.9465 H       1  LIG1        0.0660
     56 H           8.3343   -1.4214   -3.2377 H       1  LIG1        0.0660
     57 H           2.9767   -0.9141   -5.6700 H       1  LIG1        0.0660
     58 H           3.7599   -1.7453   -4.3198 H       1  LIG1        0.0660
     59 H           4.7239   -1.1425   -5.7194 H       1  LIG1        0.0660
     60 H          -1.3868   -1.1530    1.2694 H       1  LIG1        0.0660
     61 H          -0.2875   -1.5422   -0.0622 H       1  LIG1        0.0660
     62 H           0.1549   -0.2929    1.1595 H       1  LIG1        0.0660
@<TRIPOS>BOND
     1     1    19    1
     2     1    28    1
     3     2    28    1
     4     2    21    1
     5     3    22    1
     6     3    34    1
     7     4    23    1
     8     4    35    1
     9     5    25    1
    10     5    36    1
    11     6    15    2
    12     7    27   ar
    13     8    27   ar
    14     9    33    1
    15     9    37    1
    16    10    11    1
    17    10    12    1
    18    11    13    2
    19    11    15    1
    20    12    16   ar
    21    12    17   ar
    22    13    14    1
    23    13    27    1
    24    14    20   ar
    25    14    18   ar
    26    15    24    1
    27    16    23   ar
    28    17    22   ar
    29    18    19   ar
    30    19    21   ar
    31    20    26   ar
    32    21    26   ar
    33    22    25   ar
    34    23    25   ar
    35    24    29   ar
    36    24    30   ar
    37    29    31   ar
    38    30    32   ar
    39    31    33   ar
    40    32    33   ar
    41    10    38    1
    42    10    39    1
    43    16    40    1
    44    17    41    1
    45    18    42    1
    46    20    43    1
    47    26    44    1
    48    28    45    1
    49    28    46    1
    50    29    47    1
    51    30    48    1
    52    31    49    1
    53    32    50    1
    54    34    51    1
    55    34    52    1
    56    34    53    1
    57    35    54    1
    58    35    55    1
    59    35    56    1
    60    36    57    1
    61    36    58    1
    62    36    59    1
    63    37    60    1
    64    37    61    1
    65    37    62    1
@<TRIPOS>MOLECULE
9871593
 62 65 0 0 0
SMALL
GASTEIGER

@<TRIPOS>ATOM
      1 O          10.2842    0.8196   -2.7484 O.3     1  LIG1       -0.4526
      2 O          11.6386    2.0726   -1.1910 O.3     1  LIG1       -0.4526
      3 O           7.8775    4.4573    2.8975 O.3     1  LIG1       -0.4913
      4 O           4.6750    1.9943    5.5843 O.3     1  LIG1       -0.4913
      5 O           6.3044    4.2609    5.2426 O.3     1  LIG1       -0.4885
      6 O           6.6916   -2.5797    3.2796 O.2     1  LIG1       -0.2870
      7 O           7.4897   -3.7903    0.4099 O.co2   1  LIG1       -0.5446
      8 O           9.5501   -3.2511    1.2628 O.co2   1  LIG1       -0.5446
      9 O           0.4536   -2.0540    3.0957 O.3     1  LIG1       -0.4951
     10 C           6.1632    0.2639    1.1797 C.3     1  LIG1        0.0021
     11 C           6.7385   -1.1123    1.4168 C.2     1  LIG1        0.0135
     12 C           6.2575    1.2591    2.3118 C.ar    1  LIG1       -0.0358
     13 C           7.9261   -1.5246    0.9143 C.2     1  LIG1        0.0117
     14 C           8.9213   -0.6023    0.3493 C.ar    1  LIG1       -0.0121
     15 C           6.0521   -2.0639    2.3606 C.2     1  LIG1        0.1901
     16 C           5.4672    1.1250    3.4593 C.ar    1  LIG1       -0.0126
     17 C           7.0626    2.3951    2.1851 C.ar    1  LIG1       -0.0126
     18 C           9.0703   -0.4190   -1.0295 C.ar    1  LIG1       -0.0084
     19 C          10.0089    0.5013   -1.4531 C.ar    1  LIG1        0.1668
     20 C           9.7278    0.1334    1.2519 C.ar    1  LIG1       -0.0503
     21 C          10.7811    1.2183   -0.5661 C.ar    1  LIG1        0.1663
     22 C           7.0930    3.3679    3.1876 C.ar    1  LIG1        0.1654
     23 C           5.4893    2.0823    4.4810 C.ar    1  LIG1        0.1654
     24 C           4.5674   -2.1956    2.4065 C.ar    1  LIG1        0.0222
     25 C           6.3060    3.2208    4.3433 C.ar    1  LIG1        0.2035
     26 C          10.6690    1.0573    0.7951 C.ar    1  LIG1       -0.0156
     27 C           8.3644   -3.0106    0.9003 C.2     1  LIG1        0.0726
     28 C          11.3405    1.7835   -2.5704 C.3     1  LIG1        0.2332
     29 C           3.7194   -1.9093    1.3351 C.ar    1  LIG1       -0.0475
     30 C           3.9995   -2.5548    3.6416 C.ar    1  LIG1       -0.0475
     31 C           2.3306   -1.8515    1.5329 C.ar    1  LIG1       -0.0193
     32 C           2.6183   -2.5232    3.8303 C.ar    1  LIG1       -0.0193
     33 C           1.7857   -2.1191    2.7912 C.ar    1  LIG1        0.1201
     34 C           8.7559    4.8316    3.9525 C.3     1  LIG1        0.0790
     35 C           4.2682    0.6807    5.9589 C.3     1  LIG1        0.0790
     36 C           6.4478    3.8581    6.6016 C.3     1  LIG1        0.0791
     37 C          -0.2393   -0.9774    2.4710 C.3     1  LIG1        0.0788
     38 H           5.1112    0.2065    0.8855 H       1  LIG1        0.0363
     39 H           6.6240    0.7081    0.2869 H       1  LIG1        0.0363
     40 H           4.7928    0.2812    3.5231 H       1  LIG1        0.0658
     41 H           7.6665    2.5393    1.2909 H       1  LIG1        0.0658
     42 H           8.4772   -0.9861   -1.7368 H       1  LIG1        0.0661
     43 H           9.6212   -0.0416    2.3218 H       1  LIG1        0.0625
     44 H          11.2887    1.6126    1.4878 H       1  LIG1        0.0655
     45 H          11.0480    2.7169   -3.0647 H       1  LIG1        0.1166
     46 H          12.2491    1.4041   -3.0524 H       1  LIG1        0.1166
     47 H           4.1260   -1.7175    0.3454 H       1  LIG1        0.0626
     48 H           4.6431   -2.8316    4.4755 H       1  LIG1        0.0626
     49 H           1.6943   -1.6033    0.6890 H       1  LIG1        0.0654
     50 H           2.2001   -2.7815    4.7989 H       1  LIG1        0.0654
     51 H           9.6535    5.2624    3.4981 H       1  LIG1        0.0660
     52 H           9.0709    3.9805    4.5670 H       1  LIG1        0.0660
     53 H           8.2952    5.6089    4.5687 H       1  LIG1        0.0660
     54 H           3.8848    0.7309    6.9825 H       1  LIG1        0.0660
     55 H           5.1073   -0.0240    5.9535 H       1  LIG1        0.0660
     56 H           3.4528    0.3317    5.3176 H       1  LIG1        0.0660
     57 H           7.0015    4.6457    7.1218 H       1  LIG1        0.0660
     58 H           7.0146    2.9264    6.7138 H       1  LIG1        0.0660
     59 H           5.4663    3.7802    7.0778 H       1  LIG1        0.0660
     60 H          -1.1741   -0.8216    3.0189 H       1  LIG1        0.0660
     61 H          -0.4939   -1.2312    1.4380 H       1  LIG1        0.0660
     62 H           0.3304   -0.0423    2.5166 H       1  LIG1        0.0660
@<TRIPOS>BOND
     1     1    19    1
     2     1    28    1
     3     2    28    1
     4     2    21    1
     5     3    22    1
     6     3    34    1
     7     4    23    1
     8     4    35    1
     9     5    25    1
    10     5    36    1
    11     6    15    2
    12     7    27   ar
    13     8    27   ar
    14     9    33    1
    15     9    37    1
    16    10    11    1
    17    10    12    1
    18    11    13    2
    19    11    15    1
    20    12    16   ar
    21    12    17   ar
    22    13    14    1
    23    13    27    1
    24    14    20   ar
    25    14    18   ar
    26    15    24    1
    27    16    23   ar
    28    17    22   ar
    29    18    19   ar
    30    19    21   ar
    31    20    26   ar
    32    21    26   ar
    33    22    25   ar
    34    23    25   ar
    35    24    29   ar
    36    24    30   ar
    37    29    31   ar
    38    30    32   ar
    39    31    33   ar
    40    32    33   ar
    41    10    38    1
    42    10    39    1
    43    16    40    1
    44    17    41    1
    45    18    42    1
    46    20    43    1
    47    26    44    1
    48    28    45    1
    49    28    46    1
    50    29    47    1
    51    30    48    1
    52    31    49    1
    53    32    50    1
    54    34    51    1
    55    34    52    1
    56    34    53    1
    57    35    54    1
    58    35    55    1
    59    35    56    1
    60    36    57    1
    61    36    58    1
    62    36    59    1
    63    37    60    1
    64    37    61    1
    65    37    62    1
@<TRIPOS>MOLECULE
9871593
 62 65 0 0 0
SMALL
GASTEIGER

@<TRIPOS>ATOM
      1 O          10.2954    0.7462   -2.7741 O.3     1  LIG1       -0.4526
      2 O          11.7894    1.9117   -1.2780 O.3     1  LIG1       -0.4526
      3 O           7.4371    2.4259    5.3147 O.3     1  LIG1       -0.4913
      4 O           3.4752    3.8828    2.9823 O.3     1  LIG1       -0.4913
      5 O           5.1905    4.1204    5.1347 O.3     1  LIG1       -0.4885
      6 O           6.5206   -2.1827    3.4142 O.2     1  LIG1       -0.2870
      7 O           9.5383   -3.2985    1.5978 O.co2   1  LIG1       -0.5446
      8 O           7.5084   -3.8175    0.6658 O.co2   1  LIG1       -0.5446
      9 O           0.4695   -2.4938    1.5577 O.3     1  LIG1       -0.4951
     10 C           6.3590    0.3502    1.0306 C.3     1  LIG1        0.0021
     11 C           6.8537   -1.0311    1.3721 C.2     1  LIG1        0.0135
     12 C           6.0053    1.2736    2.1748 C.ar    1  LIG1       -0.0358
     13 C           8.0412   -1.5419    0.9784 C.2     1  LIG1        0.0117
     14 C           9.0902   -0.7148    0.3711 C.ar    1  LIG1       -0.0121
     15 C           6.0404   -1.8424    2.3334 C.2     1  LIG1        0.1901
     16 C           4.8688    2.0939    2.0647 C.ar    1  LIG1       -0.0126
     17 C           6.8391    1.4179    3.2879 C.ar    1  LIG1       -0.0126
     18 C           9.1608   -0.5062   -1.0116 C.ar    1  LIG1       -0.0084
     19 C          10.1034    0.3914   -1.4732 C.ar    1  LIG1        0.1668
     20 C           9.9830   -0.0354    1.2338 C.ar    1  LIG1       -0.0503
     21 C          10.9565    1.0593   -0.6214 C.ar    1  LIG1        0.1663
     22 C           6.5328    2.3442    4.2859 C.ar    1  LIG1        0.1654
     23 C           4.5684    3.0543    3.0374 C.ar    1  LIG1        0.1654
     24 C           4.5872   -2.0452    2.0995 C.ar    1  LIG1        0.0222
     25 C           5.4206    3.1895    4.1486 C.ar    1  LIG1        0.2035
     26 C          10.9277    0.8629    0.7397 C.ar    1  LIG1       -0.0156
     27 C           8.3953   -3.0370    1.1312 C.2     1  LIG1        0.0726
     28 C          11.3718    1.6950   -2.6389 C.3     1  LIG1        0.2332
     29 C           3.7670   -2.2092    3.2256 C.ar    1  LIG1       -0.0475
     30 C           4.0129   -2.0746    0.8284 C.ar    1  LIG1       -0.0475
     31 C           2.3852   -2.3662    3.0901 C.ar    1  LIG1       -0.0193
     32 C           2.6256   -2.2177    0.6963 C.ar    1  LIG1       -0.0193
     33 C           1.8068   -2.3653    1.8221 C.ar    1  LIG1        0.1201
     34 C           6.8292    2.2737    6.5948 C.3     1  LIG1        0.0790
     35 C           2.7713    3.9440    1.7485 C.3     1  LIG1        0.0790
     36 C           5.2197    5.4558    4.6357 C.3     1  LIG1        0.0791
     37 C          -0.3544   -2.8828    2.6510 C.3     1  LIG1        0.0788
     38 H           5.4844    0.2352    0.3784 H       1  LIG1        0.0363
     39 H           7.0797    0.8996    0.4145 H       1  LIG1        0.0363
     40 H           4.2338    1.9649    1.1937 H       1  LIG1        0.0658
     41 H           7.7307    0.8014    3.3909 H       1  LIG1        0.0658
     42 H           8.4912   -1.0188   -1.6909 H       1  LIG1        0.0661
     43 H           9.9303   -0.2268    2.3059 H       1  LIG1        0.0625
     44 H          11.6046    1.3828    1.4056 H       1  LIG1        0.0655
     45 H          11.0458    2.6540   -3.0587 H       1  LIG1        0.1166
     46 H          12.2321    1.3368   -3.2159 H       1  LIG1        0.1166
     47 H           4.2111   -2.2118    4.2198 H       1  LIG1        0.0626
     48 H           4.6350   -2.0120   -0.0607 H       1  LIG1        0.0626
     49 H           1.7998   -2.4813    3.9953 H       1  LIG1        0.0654
     50 H           2.1824   -2.2337   -0.2959 H       1  LIG1        0.0654
     51 H           7.5410    1.7504    7.2406 H       1  LIG1        0.0660
     52 H           5.9064    1.6827    6.5670 H       1  LIG1        0.0660
     53 H           6.6427    3.2572    7.0362 H       1  LIG1        0.0660
     54 H           2.0275    4.7426    1.8280 H       1  LIG1        0.0660
     55 H           2.2361    3.0089    1.5556 H       1  LIG1        0.0660
     56 H           3.4396    4.1982    0.9182 H       1  LIG1        0.0660
     57 H           5.6733    6.0891    5.4042 H       1  LIG1        0.0660
     58 H           4.1984    5.8131    4.4723 H       1  LIG1        0.0660
     59 H           5.8124    5.5647    3.7196 H       1  LIG1        0.0660
     60 H          -1.3718   -3.0197    2.2721 H       1  LIG1        0.0660
     61 H          -0.3905   -2.1021    3.4181 H       1  LIG1        0.0660
     62 H          -0.0260   -3.8382    3.0747 H       1  LIG1        0.0660
@<TRIPOS>BOND
     1     1    19    1
     2     1    28    1
     3     2    28    1
     4     2    21    1
     5     3    22    1
     6     3    34    1
     7     4    23    1
     8     4    35    1
     9     5    25    1
    10     5    36    1
    11     6    15    2
    12     7    27   ar
    13     8    27   ar
    14     9    33    1
    15     9    37    1
    16    10    11    1
    17    10    12    1
    18    11    13    2
    19    11    15    1
    20    12    16   ar
    21    12    17   ar
    22    13    14    1
    23    13    27    1
    24    14    20   ar
    25    14    18   ar
    26    15    24    1
    27    16    23   ar
    28    17    22   ar
    29    18    19   ar
    30    19    21   ar
    31    20    26   ar
    32    21    26   ar
    33    22    25   ar
    34    23    25   ar
    35    24    29   ar
    36    24    30   ar
    37    29    31   ar
    38    30    32   ar
    39    31    33   ar
    40    32    33   ar
    41    10    38    1
    42    10    39    1
    43    16    40    1
    44    17    41    1
    45    18    42    1
    46    20    43    1
    47    26    44    1
    48    28    45    1
    49    28    46    1
    50    29    47    1
    51    30    48    1
    52    31    49    1
    53    32    50    1
    54    34    51    1
    55    34    52    1
    56    34    53    1
    57    35    54    1
    58    35    55    1
    59    35    56    1
    60    36    57    1
    61    36    58    1
    62    36    59    1
    63    37    60    1
    64    37    61    1
    65    37    62    1
@<TRIPOS>MOLECULE
9871593
 62 65 0 0 0
SMALL
GASTEIGER

@<TRIPOS>ATOM
      1 O          11.0606    2.2213    1.5799 O.3     1  LIG1       -0.4526
      2 O          12.3031    1.6405   -0.4065 O.3     1  LIG1       -0.4526
      3 O           4.5067    1.1603    5.5836 O.3     1  LIG1       -0.4913
      4 O           3.3765    4.0520    1.9325 O.3     1  LIG1       -0.4913
      5 O           3.1844    3.2927    4.7175 O.3     1  LIG1       -0.4885
      6 O           6.3442   -2.5897    3.2176 O.2     1  LIG1       -0.2870
      7 O           7.5786   -3.8801    0.5380 O.co2   1  LIG1       -0.5446
      8 O           9.4389   -3.4353    1.8018 O.co2   1  LIG1       -0.5446
      9 O           0.2640   -2.6998    1.8315 O.3     1  LIG1       -0.4951
     10 C           6.2719    0.2025    1.0272 C.3     1  LIG1        0.0021
     11 C           6.7530   -1.1888    1.3658 C.2     1  LIG1        0.0135
     12 C           5.4633    1.0005    2.0286 C.ar    1  LIG1       -0.0358
     13 C           8.0141   -1.6281    1.1198 C.2     1  LIG1        0.0117
     14 C           9.1439   -0.7894    0.6643 C.ar    1  LIG1       -0.0121
     15 C           5.8883   -2.1244    2.1674 C.2     1  LIG1        0.1901
     16 C           4.7462    2.1123    1.5535 C.ar    1  LIG1       -0.0126
     17 C           5.4400    0.7398    3.3983 C.ar    1  LIG1       -0.0126
     18 C           9.5293    0.3308    1.4242 C.ar    1  LIG1       -0.0084
     19 C          10.5891    1.0937    0.9824 C.ar    1  LIG1        0.1668
     20 C           9.8821   -1.1203   -0.4934 C.ar    1  LIG1       -0.0503
     21 C          11.2924    0.7655   -0.1517 C.ar    1  LIG1        0.1663
     22 C           4.6136    1.4843    4.2495 C.ar    1  LIG1        0.1654
     23 C           4.0118    2.9355    2.4177 C.ar    1  LIG1        0.1654
     24 C           4.4304   -2.3291    1.9153 C.ar    1  LIG1        0.0222
     25 C           3.8969    2.5950    3.7726 C.ar    1  LIG1        0.2035
     26 C          10.9711   -0.3409   -0.9066 C.ar    1  LIG1       -0.0156
     27 C           8.3625   -3.1404    1.2050 C.2     1  LIG1        0.0726
     28 C          12.1564    2.5482    0.7049 C.3     1  LIG1        0.2332
     29 C           3.7327   -1.8543    0.8035 C.ar    1  LIG1       -0.0475
     30 C           3.7072   -3.0084    2.9140 C.ar    1  LIG1       -0.0475
     31 C           2.3315   -1.9539    0.7479 C.ar    1  LIG1       -0.0193
     32 C           2.3203   -3.1357    2.8449 C.ar    1  LIG1       -0.0193
     33 C           1.6240   -2.5659    1.7840 C.ar    1  LIG1        0.1201
     34 C           4.1555   -0.2124    5.7717 C.3     1  LIG1        0.0790
     35 C           4.2328    4.8924    1.1594 C.3     1  LIG1        0.0790
     36 C           1.9771    3.8974    4.2778 C.3     1  LIG1        0.0791
     37 C          -0.4553   -1.5784    1.3308 C.3     1  LIG1        0.0788
     38 H           5.6821    0.1208    0.1041 H       1  LIG1        0.0363
     39 H           7.1041    0.8552    0.7440 H       1  LIG1        0.0363
     40 H           4.7780    2.3391    0.4908 H       1  LIG1        0.0658
     41 H           6.0549   -0.0529    3.8179 H       1  LIG1        0.0658
     42 H           9.0142    0.5878    2.3436 H       1  LIG1        0.0661
     43 H           9.6225   -2.0153   -1.0578 H       1  LIG1        0.0625
     44 H          11.5493   -0.6139   -1.7810 H       1  LIG1        0.0655
     45 H          13.0842    2.5454    1.2884 H       1  LIG1        0.1166
     46 H          11.9972    3.5582    0.3092 H       1  LIG1        0.1166
     47 H           4.2521   -1.4076   -0.0354 H       1  LIG1        0.0626
     48 H           4.2307   -3.4363    3.7676 H       1  LIG1        0.0626
     49 H           1.8177   -1.5611   -0.1224 H       1  LIG1        0.0654
     50 H           1.7873   -3.6564    3.6346 H       1  LIG1        0.0654
     51 H           3.7610   -0.3194    6.7865 H       1  LIG1        0.0660
     52 H           5.0356   -0.8574    5.6858 H       1  LIG1        0.0660
     53 H           3.3716   -0.5320    5.0746 H       1  LIG1        0.0660
     54 H           3.8033    5.8988    1.1624 H       1  LIG1        0.0660
     55 H           4.2691    4.5490    0.1207 H       1  LIG1        0.0660
     56 H           5.2424    4.9575    1.5814 H       1  LIG1        0.0660
     57 H           1.3262    4.0082    5.1508 H       1  LIG1        0.0660
     58 H           1.4404    3.2841    3.5456 H       1  LIG1        0.0660
     59 H           2.1729    4.9023    3.8919 H       1  LIG1        0.0660
     60 H          -1.4851   -1.6547    1.6941 H       1  LIG1        0.0660
     61 H          -0.4841   -1.5945    0.2373 H       1  LIG1        0.0660
     62 H          -0.0433   -0.6316    1.6989 H       1  LIG1        0.0660
@<TRIPOS>BOND
     1     1    19    1
     2     1    28    1
     3     2    28    1
     4     2    21    1
     5     3    22    1
     6     3    34    1
     7     4    23    1
     8     4    35    1
     9     5    25    1
    10     5    36    1
    11     6    15    2
    12     7    27   ar
    13     8    27   ar
    14     9    33    1
    15     9    37    1
    16    10    11    1
    17    10    12    1
    18    11    13    2
    19    11    15    1
    20    12    16   ar
    21    12    17   ar
    22    13    14    1
    23    13    27    1
    24    14    20   ar
    25    14    18   ar
    26    15    24    1
    27    16    23   ar
    28    17    22   ar
    29    18    19   ar
    30    19    21   ar
    31    20    26   ar
    32    21    26   ar
    33    22    25   ar
    34    23    25   ar
    35    24    29   ar
    36    24    30   ar
    37    29    31   ar
    38    30    32   ar
    39    31    33   ar
    40    32    33   ar
    41    10    38    1
    42    10    39    1
    43    16    40    1
    44    17    41    1
    45    18    42    1
    46    20    43    1
    47    26    44    1
    48    28    45    1
    49    28    46    1
    50    29    47    1
    51    30    48    1
    52    31    49    1
    53    32    50    1
    54    34    51    1
    55    34    52    1
    56    34    53    1
    57    35    54    1
    58    35    55    1
    59    35    56    1
    60    36    57    1
    61    36    58    1
    62    36    59    1
    63    37    60    1
    64    37    61    1
    65    37    62    1
@<TRIPOS>MOLECULE
9871593
 62 65 0 0 0
SMALL
GASTEIGER

@<TRIPOS>ATOM
      1 O           9.8691    2.3076   -1.7156 O.3     1  LIG1       -0.4526
      2 O          11.7604    2.5368   -0.2319 O.3     1  LIG1       -0.4526
      3 O           6.0494    4.7870    1.9187 O.3     1  LIG1       -0.4913
      4 O           7.4761    1.8735    5.4055 O.3     1  LIG1       -0.4913
      5 O           7.0025    4.2962    4.5849 O.3     1  LIG1       -0.4885
      6 O           4.7930   -2.6432    1.0268 O.2     1  LIG1       -0.2870
      7 O           8.1543   -3.6696   -0.2841 O.co2   1  LIG1       -0.5446
      8 O           9.5948   -3.3009    1.4582 O.co2   1  LIG1       -0.5446
      9 O           7.1789   -6.2883    5.6013 O.3     1  LIG1       -0.4951
     10 C           6.0258   -0.0785    1.0397 C.3     1  LIG1        0.0021
     11 C           6.7984   -1.3752    1.1525 C.2     1  LIG1        0.0135
     12 C           6.3682    1.0759    1.9618 C.ar    1  LIG1       -0.0358
     13 C           8.0947   -1.5641    0.8094 C.2     1  LIG1        0.0117
     14 C           9.0712   -0.4949    0.5295 C.ar    1  LIG1       -0.0121
     15 C           5.9169   -2.5420    1.5232 C.2     1  LIG1        0.1901
     16 C           6.8167    0.8972    3.2703 C.ar    1  LIG1       -0.0126
     17 C           6.1038    2.3843    1.5168 C.ar    1  LIG1       -0.0126
     18 C           8.9263    0.3733   -0.5610 C.ar    1  LIG1       -0.0084
     19 C           9.8703    1.3677   -0.7298 C.ar    1  LIG1        0.1668
     20 C          10.1823   -0.3365    1.3938 C.ar    1  LIG1       -0.0503
     21 C          10.9461    1.5050    0.1180 C.ar    1  LIG1        0.1663
     22 C           6.2853    3.5040    2.3431 C.ar    1  LIG1        0.1654
     23 C           7.0377    1.9998    4.1055 C.ar    1  LIG1        0.1654
     24 C           6.3094   -3.4803    2.6208 C.ar    1  LIG1        0.0222
     25 C           6.7461    3.3088    3.6591 C.ar    1  LIG1        0.2035
     26 C          11.1375    0.6618    1.1861 C.ar    1  LIG1       -0.0156
     27 C           8.6875   -2.9888    0.6339 C.2     1  LIG1        0.0726
     28 C          11.0545    3.0542   -1.3757 C.3     1  LIG1        0.2332
     29 C           7.3043   -3.1881    3.5603 C.ar    1  LIG1       -0.0475
     30 C           5.6079   -4.6864    2.7415 C.ar    1  LIG1       -0.0475
     31 C           7.6283   -4.1032    4.5705 C.ar    1  LIG1       -0.0193
     32 C           5.9223   -5.5931    3.7598 C.ar    1  LIG1       -0.0193
     33 C           6.9454   -5.3146    4.6675 C.ar    1  LIG1        0.1201
     34 C           5.5278    4.9764    0.6102 C.3     1  LIG1        0.0790
     35 C           8.3009    0.7441    5.6682 C.3     1  LIG1        0.0790
     36 C           6.2742    5.5097    4.4850 C.3     1  LIG1        0.0791
     37 C           8.4151   -6.1951    6.3000 C.3     1  LIG1        0.0788
     38 H           4.9522   -0.2555    1.1866 H       1  LIG1        0.0363
     39 H           6.1053    0.2597   -0.0020 H       1  LIG1        0.0363
     40 H           6.9727   -0.1099    3.6365 H       1  LIG1        0.0658
     41 H           5.7414    2.4969    0.4992 H       1  LIG1        0.0658
     42 H           8.1054    0.2668   -1.2597 H       1  LIG1        0.0661
     43 H          10.3156   -1.0257    2.2275 H       1  LIG1        0.0625
     44 H          11.9950    0.7579    1.8400 H       1  LIG1        0.0655
     45 H          10.7670    4.0910   -1.1651 H       1  LIG1        0.1166
     46 H          11.7319    3.0481   -2.2372 H       1  LIG1        0.1166
     47 H           7.8859   -2.2739    3.4973 H       1  LIG1        0.0626
     48 H           4.8280   -4.9333    2.0249 H       1  LIG1        0.0626
     49 H           8.4360   -3.8421    5.2450 H       1  LIG1        0.0654
     50 H           5.3831   -6.5337    3.8240 H       1  LIG1        0.0654
     51 H           5.3615    6.0491    0.4704 H       1  LIG1        0.0660
     52 H           4.5608    4.4764    0.4898 H       1  LIG1        0.0660
     53 H           6.2445    4.6502   -0.1501 H       1  LIG1        0.0660
     54 H           8.7986    0.9128    6.6281 H       1  LIG1        0.0660
     55 H           9.0787    0.6214    4.9065 H       1  LIG1        0.0660
     56 H           7.6962   -0.1631    5.7649 H       1  LIG1        0.0660
     57 H           6.3268    6.0078    5.4585 H       1  LIG1        0.0660
     58 H           5.2145    5.3445    4.2629 H       1  LIG1        0.0660
     59 H           6.7425    6.1813    3.7592 H       1  LIG1        0.0660
     60 H           8.5357   -7.1095    6.8889 H       1  LIG1        0.0660
     61 H           8.4059   -5.3511    6.9974 H       1  LIG1        0.0660
     62 H           9.2646   -6.1299    5.6111 H       1  LIG1        0.0660
@<TRIPOS>BOND
     1     1    19    1
     2     1    28    1
     3     2    28    1
     4     2    21    1
     5     3    22    1
     6     3    34    1
     7     4    23    1
     8     4    35    1
     9     5    25    1
    10     5    36    1
    11     6    15    2
    12     7    27   ar
    13     8    27   ar
    14     9    33    1
    15     9    37    1
    16    10    11    1
    17    10    12    1
    18    11    13    2
    19    11    15    1
    20    12    16   ar
    21    12    17   ar
    22    13    14    1
    23    13    27    1
    24    14    20   ar
    25    14    18   ar
    26    15    24    1
    27    16    23   ar
    28    17    22   ar
    29    18    19   ar
    30    19    21   ar
    31    20    26   ar
    32    21    26   ar
    33    22    25   ar
    34    23    25   ar
    35    24    29   ar
    36    24    30   ar
    37    29    31   ar
    38    30    32   ar
    39    31    33   ar
    40    32    33   ar
    41    10    38    1
    42    10    39    1
    43    16    40    1
    44    17    41    1
    45    18    42    1
    46    20    43    1
    47    26    44    1
    48    28    45    1
    49    28    46    1
    50    29    47    1
    51    30    48    1
    52    31    49    1
    53    32    50    1
    54    34    51    1
    55    34    52    1
    56    34    53    1
    57    35    54    1
    58    35    55    1
    59    35    56    1
    60    36    57    1
    61    36    58    1
    62    36    59    1
    63    37    60    1
    64    37    61    1
    65    37    62    1
@<TRIPOS>MOLECULE
9871593
 62 65 0 0 0
SMALL
GASTEIGER

@<TRIPOS>ATOM
      1 O          10.2789    0.7684   -2.7863 O.3     1  LIG1       -0.4526
      2 O          11.7428    1.9640   -1.2837 O.3     1  LIG1       -0.4526
      3 O           7.4609    2.3806    5.3907 O.3     1  LIG1       -0.4913
      4 O           3.4585    3.7882    3.0924 O.3     1  LIG1       -0.4913
      5 O           5.2162    4.0888    5.1970 O.3     1  LIG1       -0.4885
      6 O           6.7512   -2.5993    3.2798 O.2     1  LIG1       -0.2870
      7 O           7.5900   -3.8256    0.4614 O.co2   1  LIG1       -0.5446
      8 O           9.6148   -3.3247    1.4208 O.co2   1  LIG1       -0.5446
      9 O           0.5907   -1.4932    3.4214 O.3     1  LIG1       -0.4951
     10 C           6.3677    0.2887    1.1243 C.3     1  LIG1        0.0021
     11 C           6.8765   -1.0978    1.4354 C.2     1  LIG1        0.0135
     12 C           6.0081    1.2015    2.2734 C.ar    1  LIG1       -0.0358
     13 C           8.0569   -1.5654    0.9639 C.2     1  LIG1        0.0117
     14 C           9.0743   -0.7001    0.3564 C.ar    1  LIG1       -0.0121
     15 C           6.1377   -1.9609    2.4230 C.2     1  LIG1        0.1901
     16 C           4.8636    2.0116    2.1686 C.ar    1  LIG1       -0.0126
     17 C           6.8470    1.3512    3.3818 C.ar    1  LIG1       -0.0126
     18 C           9.1491   -0.4930   -1.0257 C.ar    1  LIG1       -0.0084
     19 C          10.0794    0.4194   -1.4844 C.ar    1  LIG1        0.1668
     20 C           9.9479   -0.0001    1.2249 C.ar    1  LIG1       -0.0503
     21 C          10.9158    1.1057   -0.6299 C.ar    1  LIG1        0.1663
     22 C           6.5482    2.2918    4.3699 C.ar    1  LIG1        0.1654
     23 C           4.5589    2.9688    3.1407 C.ar    1  LIG1        0.1654
     24 C           4.6612   -1.8741    2.5714 C.ar    1  LIG1        0.0222
     25 C           5.4328    3.1336    4.2308 C.ar    1  LIG1        0.2035
     26 C          10.8795    0.9150    0.7325 C.ar    1  LIG1       -0.0156
     27 C           8.4543   -3.0636    0.9975 C.2     1  LIG1        0.0726
     28 C          11.3513    1.7203   -2.6489 C.3     1  LIG1        0.2332
     29 C           3.7803   -1.6709    1.5068 C.ar    1  LIG1       -0.0475
     30 C           4.1434   -2.0097    3.8689 C.ar    1  LIG1       -0.0475
     31 C           2.4033   -1.5259    1.7514 C.ar    1  LIG1       -0.0193
     32 C           2.7753   -1.8876    4.1049 C.ar    1  LIG1       -0.0193
     33 C           1.9031   -1.6151    3.0536 C.ar    1  LIG1        0.1201
     34 C           6.8637    2.2966    6.6801 C.3     1  LIG1        0.0790
     35 C           2.4808    3.5067    2.1015 C.3     1  LIG1        0.0790
     36 C           5.2329    5.4112    4.6606 C.3     1  LIG1        0.0791
     37 C          -0.2516   -0.7937    2.5161 C.3     1  LIG1        0.0788
     38 H           5.4990    0.1779    0.4629 H       1  LIG1        0.0363
     39 H           7.0776    0.8572    0.5164 H       1  LIG1        0.0363
     40 H           4.2390    1.8918    1.2898 H       1  LIG1        0.0658
     41 H           7.7444    0.7445    3.4794 H       1  LIG1        0.0658
     42 H           8.4976   -1.0270   -1.7077 H       1  LIG1        0.0661
     43 H           9.8981   -0.1939    2.2950 H       1  LIG1        0.0625
     44 H          11.5466    1.4466    1.4004 H       1  LIG1        0.0655
     45 H          11.0319    2.6713   -3.0925 H       1  LIG1        0.1166
     46 H          12.2222    1.3529   -3.2023 H       1  LIG1        0.1166
     47 H           4.1496   -1.6432    0.4870 H       1  LIG1        0.0626
     48 H           4.8144   -2.2075    4.7022 H       1  LIG1        0.0626
     49 H           1.7470   -1.3691    0.9022 H       1  LIG1        0.0654
     50 H           2.3956   -1.9929    5.1179 H       1  LIG1        0.0654
     51 H           7.5662    1.7783    7.3400 H       1  LIG1        0.0660
     52 H           5.9236    1.7303    6.6849 H       1  LIG1        0.0660
     53 H           6.7096    3.3021    7.0857 H       1  LIG1        0.0660
     54 H           1.6366    4.1856    2.2627 H       1  LIG1        0.0660
     55 H           2.1043    2.4814    2.1902 H       1  LIG1        0.0660
     56 H           2.8713    3.7013    1.0964 H       1  LIG1        0.0660
     57 H           5.6995    6.0660    5.4034 H       1  LIG1        0.0660
     58 H           4.2086    5.7616    4.5069 H       1  LIG1        0.0660
     59 H           5.8089    5.4965    3.7316 H       1  LIG1        0.0660
     60 H          -1.2053   -0.6159    3.0223 H       1  LIG1        0.0660
     61 H          -0.4543   -1.3955    1.6249 H       1  LIG1        0.0660
     62 H           0.1695    0.1812    2.2490 H       1  LIG1        0.0660
@<TRIPOS>BOND
     1     1    19    1
     2     1    28    1
     3     2    28    1
     4     2    21    1
     5     3    22    1
     6     3    34    1
     7     4    23    1
     8     4    35    1
     9     5    25    1
    10     5    36    1
    11     6    15    2
    12     7    27   ar
    13     8    27   ar
    14     9    33    1
    15     9    37    1
    16    10    11    1
    17    10    12    1
    18    11    13    2
    19    11    15    1
    20    12    16   ar
    21    12    17   ar
    22    13    14    1
    23    13    27    1
    24    14    20   ar
    25    14    18   ar
    26    15    24    1
    27    16    23   ar
    28    17    22   ar
    29    18    19   ar
    30    19    21   ar
    31    20    26   ar
    32    21    26   ar
    33    22    25   ar
    34    23    25   ar
    35    24    29   ar
    36    24    30   ar
    37    29    31   ar
    38    30    32   ar
    39    31    33   ar
    40    32    33   ar
    41    10    38    1
    42    10    39    1
    43    16    40    1
    44    17    41    1
    45    18    42    1
    46    20    43    1
    47    26    44    1
    48    28    45    1
    49    28    46    1
    50    29    47    1
    51    30    48    1
    52    31    49    1
    53    32    50    1
    54    34    51    1
    55    34    52    1
    56    34    53    1
    57    35    54    1
    58    35    55    1
    59    35    56    1
    60    36    57    1
    61    36    58    1
    62    36    59    1
    63    37    60    1
    64    37    61    1
    65    37    62    1
@<TRIPOS>MOLECULE
9871593
 62 65 0 0 0
SMALL
GASTEIGER

@<TRIPOS>ATOM
      1 O          12.1288    0.8853    1.7619 O.3     1  LIG1       -0.4526
      2 O          12.4892    1.1625   -0.6092 O.3     1  LIG1       -0.4526
      3 O           7.4063    1.8356    5.3979 O.3     1  LIG1       -0.4913
      4 O           3.8593    3.8857    2.7589 O.3     1  LIG1       -0.4913
      5 O           5.3089    3.7770    5.1794 O.3     1  LIG1       -0.4885
      6 O           5.2951   -2.9512    0.5019 O.2     1  LIG1       -0.2870
      7 O           7.9313   -3.3653    2.7111 O.co2   1  LIG1       -0.5446
      8 O           8.9493   -3.8616    0.7157 O.co2   1  LIG1       -0.5446
      9 O           1.8549   -0.8856    5.3602 O.3     1  LIG1       -0.4951
     10 C           6.4066    0.2747    0.7783 C.3     1  LIG1        0.0021
     11 C           6.7530   -1.1586    1.1058 C.2     1  LIG1        0.0135
     12 C           6.1412    1.1742    1.9741 C.ar    1  LIG1       -0.0358
     13 C           7.9880   -1.7010    1.0394 C.2     1  LIG1        0.0117
     14 C           9.1794   -0.9671    0.5891 C.ar    1  LIG1       -0.0121
     15 C           5.5889   -2.0808    1.3145 C.2     1  LIG1        0.1901
     16 C           5.1343    2.1414    1.9121 C.ar    1  LIG1       -0.0126
     17 C           6.9183    1.1057    3.1377 C.ar    1  LIG1       -0.0126
     18 C          10.0808   -0.4172    1.5109 C.ar    1  LIG1       -0.0084
     19 C          11.1600    0.2830    1.0165 C.ar    1  LIG1        0.1668
     20 C           9.4030   -0.8035   -0.7972 C.ar    1  LIG1       -0.0503
     21 C          11.3668    0.4441   -0.3347 C.ar    1  LIG1        0.1663
     22 C           6.6760    1.9431    4.2396 C.ar    1  LIG1        0.1654
     23 C           4.9050    3.0192    2.9799 C.ar    1  LIG1        0.1654
     24 C           4.6228   -1.7494    2.3767 C.ar    1  LIG1        0.0222
     25 C           5.6735    2.9317    4.1588 C.ar    1  LIG1        0.2035
     26 C          10.5069   -0.0889   -1.2699 C.ar    1  LIG1       -0.0156
     27 C           8.2975   -3.1360    1.5174 C.2     1  LIG1        0.0726
     28 C          12.9919    1.3860    0.7234 C.3     1  LIG1        0.2332
     29 C           3.4708   -1.0362    2.0298 C.ar    1  LIG1       -0.0475
     30 C           4.8099   -2.1963    3.6822 C.ar    1  LIG1       -0.0475
     31 C           2.5292   -0.7096    3.0068 C.ar    1  LIG1       -0.0193
     32 C           3.8474   -1.8919    4.6511 C.ar    1  LIG1       -0.0193
     33 C           2.7182   -1.1295    4.3248 C.ar    1  LIG1        0.1201
     34 C           7.9367    0.5456    5.6949 C.3     1  LIG1        0.0790
     35 C           4.0800    5.2232    3.1923 C.3     1  LIG1        0.0790
     36 C           6.3106    4.1607    6.1117 C.3     1  LIG1        0.0791
     37 C           0.9443    0.1915    5.1673 C.3     1  LIG1        0.0788
     38 H           5.5258    0.2716    0.1219 H       1  LIG1        0.0363
     39 H           7.1935    0.7565    0.1874 H       1  LIG1        0.0363
     40 H           4.5148    2.2259    1.0221 H       1  LIG1        0.0658
     41 H           7.7141    0.3684    3.1786 H       1  LIG1        0.0658
     42 H           9.9436   -0.5533    2.5771 H       1  LIG1        0.0661
     43 H           8.7160   -1.2649   -1.5045 H       1  LIG1        0.0625
     44 H          10.6853    0.0254   -2.3311 H       1  LIG1        0.0655
     45 H          13.9697    0.8984    0.8144 H       1  LIG1        0.1166
     46 H          13.1250    2.4641    0.8686 H       1  LIG1        0.1166
     47 H           3.3134   -0.7287    0.9997 H       1  LIG1        0.0626
     48 H           5.6852   -2.7923    3.9372 H       1  LIG1        0.0626
     49 H           1.6573   -0.1416    2.7033 H       1  LIG1        0.0654
     50 H           3.9814   -2.2499    5.6684 H       1  LIG1        0.0654
     51 H           8.2476    0.5525    6.7442 H       1  LIG1        0.0660
     52 H           8.8261    0.3417    5.0907 H       1  LIG1        0.0660
     53 H           7.1825   -0.2395    5.5756 H       1  LIG1        0.0660
     54 H           3.4926    5.8806    2.5434 H       1  LIG1        0.0660
     55 H           5.1287    5.5296    3.1077 H       1  LIG1        0.0660
     56 H           3.7082    5.3592    4.2120 H       1  LIG1        0.0660
     57 H           5.9810    5.0925    6.5826 H       1  LIG1        0.0660
     58 H           7.2734    4.3653    5.6312 H       1  LIG1        0.0660
     59 H           6.4008    3.4163    6.9082 H       1  LIG1        0.0660
     60 H           0.4160    0.3566    6.1112 H       1  LIG1        0.0660
     61 H           0.1926   -0.0551    4.4101 H       1  LIG1        0.0660
     62 H           1.4717    1.1175    4.9131 H       1  LIG1        0.0660
@<TRIPOS>BOND
     1     1    19    1
     2     1    28    1
     3     2    28    1
     4     2    21    1
     5     3    22    1
     6     3    34    1
     7     4    23    1
     8     4    35    1
     9     5    25    1
    10     5    36    1
    11     6    15    2
    12     7    27   ar
    13     8    27   ar
    14     9    33    1
    15     9    37    1
    16    10    11    1
    17    10    12    1
    18    11    13    2
    19    11    15    1
    20    12    16   ar
    21    12    17   ar
    22    13    14    1
    23    13    27    1
    24    14    20   ar
    25    14    18   ar
    26    15    24    1
    27    16    23   ar
    28    17    22   ar
    29    18    19   ar
    30    19    21   ar
    31    20    26   ar
    32    21    26   ar
    33    22    25   ar
    34    23    25   ar
    35    24    29   ar
    36    24    30   ar
    37    29    31   ar
    38    30    32   ar
    39    31    33   ar
    40    32    33   ar
    41    10    38    1
    42    10    39    1
    43    16    40    1
    44    17    41    1
    45    18    42    1
    46    20    43    1
    47    26    44    1
    48    28    45    1
    49    28    46    1
    50    29    47    1
    51    30    48    1
    52    31    49    1
    53    32    50    1
    54    34    51    1
    55    34    52    1
    56    34    53    1
    57    35    54    1
    58    35    55    1
    59    35    56    1
    60    36    57    1
    61    36    58    1
    62    36    59    1
    63    37    60    1
    64    37    61    1
    65    37    62    1
@<TRIPOS>MOLECULE
9871593
 62 65 0 0 0
SMALL
GASTEIGER

@<TRIPOS>ATOM
      1 O           9.8434    2.1195   -1.8087 O.3     1  LIG1       -0.4526
      2 O          11.7471    2.2706   -0.3306 O.3     1  LIG1       -0.4526
      3 O           5.9886    4.9855    2.0813 O.3     1  LIG1       -0.4913
      4 O           7.3517    1.7850    5.5476 O.3     1  LIG1       -0.4913
      5 O           6.8525    4.5301    4.7773 O.3     1  LIG1       -0.4885
      6 O           6.5235   -2.6474    3.2270 O.2     1  LIG1       -0.2870
      7 O           9.3399   -3.4353    1.0710 O.co2   1  LIG1       -0.5446
      8 O           7.2587   -3.7301    0.1616 O.co2   1  LIG1       -0.5446
      9 O           0.3247   -2.6271    2.1757 O.3     1  LIG1       -0.4951
     10 C           6.0034    0.1676    1.1812 C.3     1  LIG1        0.0021
     11 C           6.6522   -1.1764    1.3630 C.2     1  LIG1        0.0135
     12 C           6.3268    1.2978    2.1267 C.ar    1  LIG1       -0.0358
     13 C           7.8515   -1.5569    0.8651 C.2     1  LIG1        0.0117
     14 C           8.9096   -0.6126    0.4688 C.ar    1  LIG1       -0.0121
     15 C           5.9471   -2.1612    2.2546 C.2     1  LIG1        0.1901
     16 C           6.7676    1.1156    3.4342 C.ar    1  LIG1       -0.0126
     17 C           6.0603    2.6043    1.6944 C.ar    1  LIG1       -0.0126
     18 C           8.8116    0.2372   -0.6399 C.ar    1  LIG1       -0.0084
     19 C           9.8081    1.1785   -0.8230 C.ar    1  LIG1        0.1668
     20 C          10.0360   -0.5048    1.3230 C.ar    1  LIG1       -0.0503
     21 C          10.8923    1.2730    0.0218 C.ar    1  LIG1        0.1663
     22 C           6.2464    3.7132    2.5309 C.ar    1  LIG1        0.1654
     23 C           6.9372    2.2056    4.3075 C.ar    1  LIG1        0.1654
     24 C           4.4816   -2.3427    2.1427 C.ar    1  LIG1        0.0222
     25 C           6.6571    3.5206    3.8683 C.ar    1  LIG1        0.2035
     26 C          11.0461    0.4326    1.0971 C.ar    1  LIG1       -0.0156
     27 C           8.1861   -3.0637    0.7229 C.2     1  LIG1        0.0726
     28 C          11.0505    2.8280   -1.4597 C.3     1  LIG1        0.2332
     29 C           3.8223   -2.4092    0.9141 C.ar    1  LIG1       -0.0475
     30 C           3.7469   -2.4210    3.3315 C.ar    1  LIG1       -0.0475
     31 C           2.4230   -2.5048    0.8785 C.ar    1  LIG1       -0.0193
     32 C           2.3571   -2.5202    3.2907 C.ar    1  LIG1       -0.0193
     33 C           1.6864   -2.5492    2.0670 C.ar    1  LIG1        0.1201
     34 C           6.2123    5.2255    0.6958 C.3     1  LIG1        0.0790
     35 C           7.6517    2.7403    6.5480 C.3     1  LIG1        0.0790
     36 C           6.1883    5.7704    4.5934 C.3     1  LIG1        0.0791
     37 C          -0.4177   -2.6018    0.9659 C.3     1  LIG1        0.0788
     38 H           4.9124    0.0667    1.1980 H       1  LIG1        0.0363
     39 H           6.2090    0.5044    0.1571 H       1  LIG1        0.0363
     40 H           6.9811    0.1131    3.8053 H       1  LIG1        0.0658
     41 H           5.6796    2.7342    0.6852 H       1  LIG1        0.0658
     42 H           7.9750    0.1762   -1.3233 H       1  LIG1        0.0661
     43 H          10.1201   -1.1807    2.1759 H       1  LIG1        0.0625
     44 H          11.9034    0.4948    1.7546 H       1  LIG1        0.0655
     45 H          10.7900    3.8677   -1.2263 H       1  LIG1        0.1166
     46 H          11.7235    2.8235   -2.3240 H       1  LIG1        0.1166
     47 H           4.3949   -2.4011   -0.0115 H       1  LIG1        0.0626
     48 H           4.2603   -2.3921    4.2907 H       1  LIG1        0.0626
     49 H           1.9439   -2.5501   -0.0935 H       1  LIG1        0.0654
     50 H           1.7969   -2.5706    4.2205 H       1  LIG1        0.0654
     51 H           6.2539    6.3095    0.5508 H       1  LIG1        0.0660
     52 H           5.3789    4.8470    0.0954 H       1  LIG1        0.0660
     53 H           7.1666    4.8062    0.3591 H       1  LIG1        0.0660
     54 H           8.0204    2.1949    7.4226 H       1  LIG1        0.0660
     55 H           6.7524    3.2784    6.8628 H       1  LIG1        0.0660
     56 H           8.4518    3.4165    6.2317 H       1  LIG1        0.0660
     57 H           6.2207    6.3051    5.5481 H       1  LIG1        0.0660
     58 H           5.1328    5.6422    4.3315 H       1  LIG1        0.0660
     59 H           6.7217    6.3905    3.8665 H       1  LIG1        0.0660
     60 H          -1.4797   -2.6461    1.2278 H       1  LIG1        0.0660
     61 H          -0.1912   -3.4748    0.3458 H       1  LIG1        0.0660
     62 H          -0.2494   -1.6691    0.4180 H       1  LIG1        0.0660
@<TRIPOS>BOND
     1     1    19    1
     2     1    28    1
     3     2    28    1
     4     2    21    1
     5     3    22    1
     6     3    34    1
     7     4    23    1
     8     4    35    1
     9     5    25    1
    10     5    36    1
    11     6    15    2
    12     7    27   ar
    13     8    27   ar
    14     9    33    1
    15     9    37    1
    16    10    11    1
    17    10    12    1
    18    11    13    2
    19    11    15    1
    20    12    16   ar
    21    12    17   ar
    22    13    14    1
    23    13    27    1
    24    14    20   ar
    25    14    18   ar
    26    15    24    1
    27    16    23   ar
    28    17    22   ar
    29    18    19   ar
    30    19    21   ar
    31    20    26   ar
    32    21    26   ar
    33    22    25   ar
    34    23    25   ar
    35    24    29   ar
    36    24    30   ar
    37    29    31   ar
    38    30    32   ar
    39    31    33   ar
    40    32    33   ar
    41    10    38    1
    42    10    39    1
    43    16    40    1
    44    17    41    1
    45    18    42    1
    46    20    43    1
    47    26    44    1
    48    28    45    1
    49    28    46    1
    50    29    47    1
    51    30    48    1
    52    31    49    1
    53    32    50    1
    54    34    51    1
    55    34    52    1
    56    34    53    1
    57    35    54    1
    58    35    55    1
    59    35    56    1
    60    36    57    1
    61    36    58    1
    62    36    59    1
    63    37    60    1
    64    37    61    1
    65    37    62    1
@<TRIPOS>MOLECULE
9871593
 62 65 0 0 0
SMALL
GASTEIGER

@<TRIPOS>ATOM
      1 O          10.5096    0.3701   -2.7188 O.3     1  LIG1       -0.4526
      2 O          11.9511    1.6099   -1.2293 O.3     1  LIG1       -0.4526
      3 O           8.0881    4.1548    3.2782 O.3     1  LIG1       -0.4913
      4 O           8.4150    3.7413   -1.5903 O.3     1  LIG1       -0.4913
      5 O           9.0460    5.2000    0.8738 O.3     1  LIG1       -0.4885
      6 O           6.3629   -1.7351    3.5260 O.2     1  LIG1       -0.2870
      7 O           9.3740   -3.1151    1.9792 O.co2   1  LIG1       -0.5446
      8 O           7.3853   -3.7688    1.0498 O.co2   1  LIG1       -0.5446
      9 O           0.3696   -2.8395    2.0022 O.3     1  LIG1       -0.4951
     10 C           6.0477    0.3450    0.8699 C.3     1  LIG1        0.0021
     11 C           6.6682   -0.9505    1.3241 C.2     1  LIG1        0.0135
     12 C           6.8574    1.6175    0.8908 C.ar    1  LIG1       -0.0358
     13 C           7.8957   -1.4590    1.0631 C.2     1  LIG1        0.0117
     14 C           8.9976   -0.7118    0.4476 C.ar    1  LIG1       -0.0121
     15 C           5.8970   -1.6856    2.3841 C.2     1  LIG1        0.1901
     16 C           7.3137    2.1903   -0.3030 C.ar    1  LIG1       -0.0126
     17 C           7.1275    2.2713    2.0941 C.ar    1  LIG1       -0.0126
     18 C           9.1839   -0.6486   -0.9378 C.ar    1  LIG1       -0.0084
     19 C          10.2040    0.1562   -1.4081 C.ar    1  LIG1        0.1668
     20 C           9.8663    0.0038    1.3087 C.ar    1  LIG1       -0.0503
     21 C          11.0286    0.8658   -0.5608 C.ar    1  LIG1        0.1663
     22 C           7.8162    3.4919    2.1039 C.ar    1  LIG1        0.1654
     23 C           8.0532    3.3808   -0.3173 C.ar    1  LIG1        0.1654
     24 C           4.4891   -2.1374    2.1754 C.ar    1  LIG1        0.0222
     25 C           8.2961    4.0486    0.8953 C.ar    1  LIG1        0.2035
     26 C          10.8929    0.8037    0.8062 C.ar    1  LIG1       -0.0156
     27 C           8.2556   -2.9240    1.4265 C.2     1  LIG1        0.0726
     28 C          11.5841    1.3217   -2.5909 C.3     1  LIG1        0.2332
     29 C           3.7567   -1.9371    1.0035 C.ar    1  LIG1       -0.0475
     30 C           3.8411   -2.7152    3.2795 C.ar    1  LIG1       -0.0475
     31 C           2.3787   -2.1991    0.9846 C.ar    1  LIG1       -0.0193
     32 C           2.4731   -2.9978    3.2519 C.ar    1  LIG1       -0.0193
     33 C           1.7258   -2.6927    2.1180 C.ar    1  LIG1        0.1201
     34 C           7.0709    4.0539    4.2717 C.3     1  LIG1        0.0790
     35 C           9.2737    4.8535   -1.7696 C.3     1  LIG1        0.0790
     36 C           8.4583    6.3028    1.5554 C.3     1  LIG1        0.0791
     37 C          -0.3435   -2.9869    3.2266 C.3     1  LIG1        0.0788
     38 H           5.1494    0.5588    1.4656 H       1  LIG1        0.0363
     39 H           5.6703    0.1911   -0.1502 H       1  LIG1        0.0363
     40 H           7.1243    1.6833   -1.2481 H       1  LIG1        0.0658
     41 H           6.8084    1.7980    3.0188 H       1  LIG1        0.0658
     42 H           8.5434   -1.1986   -1.6155 H       1  LIG1        0.0661
     43 H           9.7275   -0.0771    2.3856 H       1  LIG1        0.0625
     44 H          11.5455    1.3569    1.4690 H       1  LIG1        0.0655
     45 H          11.2817    2.2584   -3.0742 H       1  LIG1        0.1166
     46 H          12.4652    0.9301   -3.1121 H       1  LIG1        0.1166
     47 H           4.2268   -1.5603    0.1022 H       1  LIG1        0.0626
     48 H           4.4084   -2.9339    4.1835 H       1  LIG1        0.0626
     49 H           1.8072   -1.9943    0.0828 H       1  LIG1        0.0654
     50 H           2.0292   -3.4416    4.1358 H       1  LIG1        0.0654
     51 H           7.2158    4.8746    4.9808 H       1  LIG1        0.0660
     52 H           7.1608    3.1140    4.8244 H       1  LIG1        0.0660
     53 H           6.0674    4.1638    3.8434 H       1  LIG1        0.0660
     54 H           9.5080    4.9179   -2.8372 H       1  LIG1        0.0660
     55 H          10.2220    4.7244   -1.2392 H       1  LIG1        0.0660
     56 H           8.7688    5.7856   -1.4984 H       1  LIG1        0.0660
     57 H           8.7406    7.2119    1.0150 H       1  LIG1        0.0660
     58 H           8.8705    6.3842    2.5653 H       1  LIG1        0.0660
     59 H           7.3638    6.2579    1.5801 H       1  LIG1        0.0660
     60 H          -1.4105   -2.8768    3.0104 H       1  LIG1        0.0660
     61 H          -0.0739   -2.2090    3.9506 H       1  LIG1        0.0660
     62 H          -0.1879   -3.9855    3.6475 H       1  LIG1        0.0660
@<TRIPOS>BOND
     1     1    19    1
     2     1    28    1
     3     2    28    1
     4     2    21    1
     5     3    22    1
     6     3    34    1
     7     4    23    1
     8     4    35    1
     9     5    25    1
    10     5    36    1
    11     6    15    2
    12     7    27   ar
    13     8    27   ar
    14     9    33    1
    15     9    37    1
    16    10    11    1
    17    10    12    1
    18    11    13    2
    19    11    15    1
    20    12    16   ar
    21    12    17   ar
    22    13    14    1
    23    13    27    1
    24    14    20   ar
    25    14    18   ar
    26    15    24    1
    27    16    23   ar
    28    17    22   ar
    29    18    19   ar
    30    19    21   ar
    31    20    26   ar
    32    21    26   ar
    33    22    25   ar
    34    23    25   ar
    35    24    29   ar
    36    24    30   ar
    37    29    31   ar
    38    30    32   ar
    39    31    33   ar
    40    32    33   ar
    41    10    38    1
    42    10    39    1
    43    16    40    1
    44    17    41    1
    45    18    42    1
    46    20    43    1
    47    26    44    1
    48    28    45    1
    49    28    46    1
    50    29    47    1
    51    30    48    1
    52    31    49    1
    53    32    50    1
    54    34    51    1
    55    34    52    1
    56    34    53    1
    57    35    54    1
    58    35    55    1
    59    35    56    1
    60    36    57    1
    61    36    58    1
    62    36    59    1
    63    37    60    1
    64    37    61    1
    65    37    62    1
@<TRIPOS>MOLECULE
9871593
 62 65 0 0 0
SMALL
GASTEIGER

@<TRIPOS>ATOM
      1 O           9.7971    2.2130   -1.7263 O.3     1  LIG1       -0.4526
      2 O          11.7616    2.3821   -0.3336 O.3     1  LIG1       -0.4526
      3 O           1.9598    1.7660   -0.6371 O.3     1  LIG1       -0.4913
      4 O           4.3513   -1.6569   -3.2244 O.3     1  LIG1       -0.4913
      5 O           2.0516    0.0774   -2.9529 O.3     1  LIG1       -0.4885
      6 O           4.6758   -2.5493    1.5380 O.2     1  LIG1       -0.2870
      7 O           7.9134   -3.6974   -0.2741 O.co2   1  LIG1       -0.5446
      8 O           9.5317   -3.4399    1.3312 O.co2   1  LIG1       -0.5446
      9 O           7.6682   -6.4482    5.4449 O.3     1  LIG1       -0.4951
     10 C           6.0361   -0.0845    1.1759 C.3     1  LIG1        0.0021
     11 C           6.7657   -1.4133    1.2685 C.2     1  LIG1        0.0135
     12 C           5.0439   -0.0026    0.0190 C.ar    1  LIG1       -0.0358
     13 C           8.0425   -1.6305    0.8711 C.2     1  LIG1        0.0117
     14 C           9.0364   -0.5942    0.5281 C.ar    1  LIG1       -0.0121
     15 C           5.8799   -2.5234    1.7926 C.2     1  LIG1        0.1901
     16 C           5.1920   -0.7803   -1.1373 C.ar    1  LIG1       -0.0126
     17 C           3.9339    0.8380    0.0970 C.ar    1  LIG1       -0.0126
     18 C           8.8632    0.2892   -0.5469 C.ar    1  LIG1       -0.0084
     19 C           9.8252    1.2583   -0.7559 C.ar    1  LIG1        0.1668
     20 C          10.1951   -0.4768    1.3336 C.ar    1  LIG1       -0.0503
     21 C          10.9441    1.3614    0.0394 C.ar    1  LIG1        0.1663
     22 C           2.9708    0.8785   -0.9275 C.ar    1  LIG1        0.1654
     23 C           4.2187   -0.8122   -2.1472 C.ar    1  LIG1        0.1654
     24 C           6.3937   -3.5118    2.7780 C.ar    1  LIG1        0.0222
     25 C           3.0926    0.0354   -2.0590 C.ar    1  LIG1        0.2035
     26 C          11.1660    0.4999    1.0882 C.ar    1  LIG1       -0.0156
     27 C           8.5573   -3.0680    0.6167 C.2     1  LIG1        0.0726
     28 C          11.0151    2.9278   -1.4393 C.3     1  LIG1        0.2332
     29 C           7.4234   -3.2143    3.6774 C.ar    1  LIG1       -0.0475
     30 C           5.7616   -4.7622    2.8456 C.ar    1  LIG1       -0.0475
     31 C           7.8681   -4.1829    4.5815 C.ar    1  LIG1       -0.0193
     32 C           6.1950   -5.7219    3.7616 C.ar    1  LIG1       -0.0193
     33 C           7.2714   -5.4442    4.6010 C.ar    1  LIG1        0.1201
     34 C           1.1384    2.2224   -1.7000 C.3     1  LIG1        0.0790
     35 C           5.1447   -2.8291   -3.0219 C.3     1  LIG1        0.0790
     36 C           2.1672   -0.5735   -4.2072 C.3     1  LIG1        0.0791
     37 C           9.0810   -6.6497    5.4163 C.3     1  LIG1        0.0788
     38 H           6.7283    0.7585    1.0884 H       1  LIG1        0.0363
     39 H           5.4984    0.0758    2.1203 H       1  LIG1        0.0363
     40 H           6.0680   -1.4194   -1.2170 H       1  LIG1        0.0658
     41 H           3.7907    1.4618    0.9764 H       1  LIG1        0.0658
     42 H           8.0018    0.2264   -1.1992 H       1  LIG1        0.0661
     43 H          10.3514   -1.1786    2.1528 H       1  LIG1        0.0625
     44 H          12.0567    0.5668    1.7000 H       1  LIG1        0.0655
     45 H          10.7636    3.9698   -1.2079 H       1  LIG1        0.1166
     46 H          11.6505    2.9124   -2.3326 H       1  LIG1        0.1166
     47 H           7.9174   -2.2466    3.6618 H       1  LIG1        0.0626
     48 H           4.9453   -4.9915    2.1656 H       1  LIG1        0.0626
     49 H           8.6880   -3.9382    5.2477 H       1  LIG1        0.0654
     50 H           5.7156   -6.6949    3.7911 H       1  LIG1        0.0654
     51 H           0.6092    3.1132   -1.3475 H       1  LIG1        0.0660
     52 H           0.3756    1.4777   -1.9497 H       1  LIG1        0.0660
     53 H           1.7239    2.5213   -2.5754 H       1  LIG1        0.0660
     54 H           4.9199   -3.5233   -3.8376 H       1  LIG1        0.0660
     55 H           4.8984   -3.3339   -2.0812 H       1  LIG1        0.0660
     56 H           6.2108   -2.5871   -3.0806 H       1  LIG1        0.0660
     57 H           1.3019   -0.2775   -4.8091 H       1  LIG1        0.0660
     58 H           2.1170   -1.6605   -4.0952 H       1  LIG1        0.0660
     59 H           3.0594   -0.2486   -4.7513 H       1  LIG1        0.0660
     60 H           9.2824   -7.6463    5.8202 H       1  LIG1        0.0660
     61 H           9.5867   -5.9210    6.0569 H       1  LIG1        0.0660
     62 H           9.4815   -6.6153    4.3959 H       1  LIG1        0.0660
@<TRIPOS>BOND
     1     1    19    1
     2     1    28    1
     3     2    28    1
     4     2    21    1
     5     3    22    1
     6     3    34    1
     7     4    23    1
     8     4    35    1
     9     5    25    1
    10     5    36    1
    11     6    15    2
    12     7    27   ar
    13     8    27   ar
    14     9    33    1
    15     9    37    1
    16    10    11    1
    17    10    12    1
    18    11    13    2
    19    11    15    1
    20    12    16   ar
    21    12    17   ar
    22    13    14    1
    23    13    27    1
    24    14    20   ar
    25    14    18   ar
    26    15    24    1
    27    16    23   ar
    28    17    22   ar
    29    18    19   ar
    30    19    21   ar
    31    20    26   ar
    32    21    26   ar
    33    22    25   ar
    34    23    25   ar
    35    24    29   ar
    36    24    30   ar
    37    29    31   ar
    38    30    32   ar
    39    31    33   ar
    40    32    33   ar
    41    10    38    1
    42    10    39    1
    43    16    40    1
    44    17    41    1
    45    18    42    1
    46    20    43    1
    47    26    44    1
    48    28    45    1
    49    28    46    1
    50    29    47    1
    51    30    48    1
    52    31    49    1
    53    32    50    1
    54    34    51    1
    55    34    52    1
    56    34    53    1
    57    35    54    1
    58    35    55    1
    59    35    56    1
    60    36    57    1
    61    36    58    1
    62    36    59    1
    63    37    60    1
    64    37    61    1
    65    37    62    1
@<TRIPOS>MOLECULE
9871593
 62 65 0 0 0
SMALL
GASTEIGER

@<TRIPOS>ATOM
      1 O          11.0895    2.2671    1.2381 O.3     1  LIG1       -0.4526
      2 O          12.3148    1.5921   -0.7285 O.3     1  LIG1       -0.4526
      3 O           5.2616    4.8127    2.1947 O.3     1  LIG1       -0.4913
      4 O           7.0579    1.9946    5.6062 O.3     1  LIG1       -0.4913
      5 O           6.1706    4.3336    4.9050 O.3     1  LIG1       -0.4885
      6 O           6.6299   -2.7704    3.2067 O.2     1  LIG1       -0.2870
      7 O           7.7094   -3.8920    0.4571 O.co2   1  LIG1       -0.5446
      8 O           9.5630   -3.3833    1.7133 O.co2   1  LIG1       -0.5446
      9 O           0.5147   -1.5978    3.3578 O.3     1  LIG1       -0.4951
     10 C           6.2694    0.1346    1.0301 C.3     1  LIG1        0.0021
     11 C           6.8371   -1.2109    1.4062 C.2     1  LIG1        0.0135
     12 C           6.2253    1.2274    2.0791 C.ar    1  LIG1       -0.0358
     13 C           8.0744   -1.6298    1.0396 C.2     1  LIG1        0.0117
     14 C           9.1508   -0.7771    0.4808 C.ar    1  LIG1       -0.0121
     15 C           6.0577   -2.0960    2.3502 C.2     1  LIG1        0.1901
     16 C           6.6393    1.0507    3.4001 C.ar    1  LIG1       -0.0126
     17 C           5.7695    2.4961    1.6845 C.ar    1  LIG1       -0.0126
     18 C           9.5422    0.3858    1.1695 C.ar    1  LIG1       -0.0084
     19 C          10.5986    1.1257    0.6823 C.ar    1  LIG1        0.1668
     20 C           9.8748   -1.1576   -0.6711 C.ar    1  LIG1       -0.0503
     21 C          11.2917    0.7426   -0.4383 C.ar    1  LIG1        0.1663
     22 C           5.7379    3.5823    2.5725 C.ar    1  LIG1        0.1654
     23 C           6.6298    2.1194    4.3024 C.ar    1  LIG1        0.1654
     24 C           4.5837   -1.9763    2.4945 C.ar    1  LIG1        0.0222
     25 C           6.1632    3.3919    3.9016 C.ar    1  LIG1        0.2035
     26 C          10.9579   -0.3969   -1.1366 C.ar    1  LIG1       -0.0156
     27 C           8.4732   -3.1294    1.1295 C.2     1  LIG1        0.0726
     28 C          12.2021    2.5289    0.3631 C.3     1  LIG1        0.2332
     29 C           3.6912   -1.8966    1.4246 C.ar    1  LIG1       -0.0475
     30 C           4.0804   -1.9735    3.8043 C.ar    1  LIG1       -0.0475
     31 C           2.3131   -1.7552    1.6682 C.ar    1  LIG1       -0.0193
     32 C           2.7133   -1.8471    4.0423 C.ar    1  LIG1       -0.0193
     33 C           1.8222   -1.7239    2.9784 C.ar    1  LIG1        0.1201
     34 C           5.2683    5.1130    0.8036 C.3     1  LIG1        0.0790
     35 C           8.0020    0.9552    5.8532 C.3     1  LIG1        0.0790
     36 C           6.1448    5.7052    4.5515 C.3     1  LIG1        0.0791
     37 C          -0.4338   -1.3390    2.3346 C.3     1  LIG1        0.0788
     38 H           5.2576    0.0131    0.6306 H       1  LIG1        0.0363
     39 H           6.8331    0.5350    0.1757 H       1  LIG1        0.0363
     40 H           6.9880    0.0737    3.7203 H       1  LIG1        0.0658
     41 H           5.4309    2.6081    0.6584 H       1  LIG1        0.0658
     42 H           9.0657    0.6824    2.0942 H       1  LIG1        0.0661
     43 H           9.6204   -2.0854   -1.1826 H       1  LIG1        0.0625
     44 H          11.5314   -0.7168   -1.9974 H       1  LIG1        0.0655
     45 H          13.1259    2.4978    0.9532 H       1  LIG1        0.1166
     46 H          12.0891    3.5367   -0.0529 H       1  LIG1        0.1166
     47 H           4.0541   -1.9597    0.4020 H       1  LIG1        0.0626
     48 H           4.7623   -2.0721    4.6477 H       1  LIG1        0.0626
     49 H           1.6488   -1.6863    0.8134 H       1  LIG1        0.0654
     50 H           2.3467   -1.8487    5.0657 H       1  LIG1        0.0654
     51 H           5.1077    6.1903    0.6942 H       1  LIG1        0.0660
     52 H           4.4449    4.6028    0.2932 H       1  LIG1        0.0660
     53 H           6.2316    4.8744    0.3392 H       1  LIG1        0.0660
     54 H           8.4485    1.1374    6.8355 H       1  LIG1        0.0660
     55 H           8.8129    0.9594    5.1156 H       1  LIG1        0.0660
     56 H           7.5056   -0.0195    5.8902 H       1  LIG1        0.0660
     57 H           6.4286    6.2791    5.4393 H       1  LIG1        0.0660
     58 H           5.1318    6.0174    4.2809 H       1  LIG1        0.0660
     59 H           6.8714    5.9431    3.7677 H       1  LIG1        0.0660
     60 H          -1.4122   -1.2241    2.8118 H       1  LIG1        0.0660
     61 H          -0.5007   -2.1790    1.6368 H       1  LIG1        0.0660
     62 H          -0.2063   -0.4037    1.8125 H       1  LIG1        0.0660
@<TRIPOS>BOND
     1     1    19    1
     2     1    28    1
     3     2    28    1
     4     2    21    1
     5     3    22    1
     6     3    34    1
     7     4    23    1
     8     4    35    1
     9     5    25    1
    10     5    36    1
    11     6    15    2
    12     7    27   ar
    13     8    27   ar
    14     9    33    1
    15     9    37    1
    16    10    11    1
    17    10    12    1
    18    11    13    2
    19    11    15    1
    20    12    16   ar
    21    12    17   ar
    22    13    14    1
    23    13    27    1
    24    14    20   ar
    25    14    18   ar
    26    15    24    1
    27    16    23   ar
    28    17    22   ar
    29    18    19   ar
    30    19    21   ar
    31    20    26   ar
    32    21    26   ar
    33    22    25   ar
    34    23    25   ar
    35    24    29   ar
    36    24    30   ar
    37    29    31   ar
    38    30    32   ar
    39    31    33   ar
    40    32    33   ar
    41    10    38    1
    42    10    39    1
    43    16    40    1
    44    17    41    1
    45    18    42    1
    46    20    43    1
    47    26    44    1
    48    28    45    1
    49    28    46    1
    50    29    47    1
    51    30    48    1
    52    31    49    1
    53    32    50    1
    54    34    51    1
    55    34    52    1
    56    34    53    1
    57    35    54    1
    58    35    55    1
    59    35    56    1
    60    36    57    1
    61    36    58    1
    62    36    59    1
    63    37    60    1
    64    37    61    1
    65    37    62    1
@<TRIPOS>MOLECULE
9871593
 62 65 0 0 0
SMALL
GASTEIGER

@<TRIPOS>ATOM
      1 O          10.0376    1.8430   -2.0179 O.3     1  LIG1       -0.4526
      2 O          11.8612    2.1660   -0.4706 O.3     1  LIG1       -0.4526
      3 O           2.6232    3.2206    2.7135 O.3     1  LIG1       -0.4913
      4 O           6.6172    2.7007    5.2281 O.3     1  LIG1       -0.4913
      5 O           4.0908    3.8462    4.8088 O.3     1  LIG1       -0.4885
      6 O           6.5284   -2.2718    3.3162 O.2     1  LIG1       -0.2870
      7 O           9.3833   -3.4154    1.4499 O.co2   1  LIG1       -0.5446
      8 O           7.3481   -3.8160    0.4779 O.co2   1  LIG1       -0.5446
      9 O           0.3885   -2.7283    1.8643 O.3     1  LIG1       -0.4951
     10 C           6.1653    0.2496    0.9338 C.3     1  LIG1        0.0021
     11 C           6.7267   -1.1062    1.2659 C.2     1  LIG1        0.0135
     12 C           5.5858    1.0861    2.0498 C.ar    1  LIG1       -0.0358
     13 C           7.9459   -1.5700    0.8980 C.2     1  LIG1        0.0117
     14 C           9.0456   -0.7020    0.4418 C.ar    1  LIG1       -0.0121
     15 C           5.9799   -1.9468    2.2605 C.2     1  LIG1        0.1901
     16 C           6.3533    1.4027    3.1774 C.ar    1  LIG1       -0.0126
     17 C           4.3237    1.6750    1.8887 C.ar    1  LIG1       -0.0126
     18 C           8.9958    0.0329   -0.7502 C.ar    1  LIG1       -0.0084
     19 C           9.9823    0.9764   -0.9682 C.ar    1  LIG1        0.1668
     20 C          10.1329   -0.5046    1.3301 C.ar    1  LIG1       -0.0503
     21 C          11.0213    1.1680   -0.0842 C.ar    1  LIG1        0.1663
     22 C           3.8400    2.5900    2.8249 C.ar    1  LIG1        0.1654
     23 C           5.8826    2.3056    4.1381 C.ar    1  LIG1        0.1654
     24 C           4.5216   -2.1830    2.1185 C.ar    1  LIG1        0.0222
     25 C           4.6096    2.8885    3.9651 C.ar    1  LIG1        0.2035
     26 C          11.1413    0.4239    1.0642 C.ar    1  LIG1       -0.0156
     27 C           8.2587   -3.0866    0.9838 C.2     1  LIG1        0.0726
     28 C          11.1813    2.6395   -1.6488 C.3     1  LIG1        0.2332
     29 C           3.8617   -2.2085    0.8908 C.ar    1  LIG1       -0.0475
     30 C           3.7862   -2.3791    3.2975 C.ar    1  LIG1       -0.0475
     31 C           2.4718   -2.3851    0.8555 C.ar    1  LIG1       -0.0193
     32 C           2.4037   -2.5687    3.2577 C.ar    1  LIG1       -0.0193
     33 C           1.7379   -2.5665    2.0346 C.ar    1  LIG1        0.1201
     34 C           2.0948    3.3338    1.3976 C.3     1  LIG1        0.0790
     35 C           7.8886    2.0886    5.4154 C.3     1  LIG1        0.0790
     36 C           4.1214    3.4868    6.1850 C.3     1  LIG1        0.0791
     37 C          -0.3509   -3.1059    3.0209 C.3     1  LIG1        0.0788
     38 H           5.4021    0.1014    0.1585 H       1  LIG1        0.0363
     39 H           6.9079    0.8957    0.4572 H       1  LIG1        0.0363
     40 H           7.3368    0.9438    3.2591 H       1  LIG1        0.0658
     41 H           3.7389    1.4157    1.0112 H       1  LIG1        0.0658
     42 H           8.1808   -0.0912   -1.4529 H       1  LIG1        0.0661
     43 H          10.1820   -1.0953    2.2464 H       1  LIG1        0.0625
     44 H          11.9663    0.5615    1.7520 H       1  LIG1        0.0655
     45 H          10.8471    3.6682   -1.4652 H       1  LIG1        0.1166
     46 H          11.8901    2.6472   -2.4837 H       1  LIG1        0.1166
     47 H           4.4179   -2.1190   -0.0385 H       1  LIG1        0.0626
     48 H           4.2982   -2.3819    4.2585 H       1  LIG1        0.0626
     49 H           1.9594   -2.4006   -0.1026 H       1  LIG1        0.0654
     50 H           1.8890   -2.7091    4.2006 H       1  LIG1        0.0654
     51 H           1.2667    4.0482    1.4298 H       1  LIG1        0.0660
     52 H           1.6923    2.3753    1.0542 H       1  LIG1        0.0660
     53 H           2.8398    3.7231    0.6944 H       1  LIG1        0.0660
     54 H           8.3183    2.4918    6.3374 H       1  LIG1        0.0660
     55 H           8.5712    2.3394    4.5966 H       1  LIG1        0.0660
     56 H           7.7938    1.0049    5.5402 H       1  LIG1        0.0660
     57 H           3.2422    3.9307    6.6624 H       1  LIG1        0.0660
     58 H           5.0047    3.9178    6.6651 H       1  LIG1        0.0660
     59 H           4.0766    2.4044    6.3477 H       1  LIG1        0.0660
     60 H          -1.3917   -3.2559    2.7195 H       1  LIG1        0.0660
     61 H          -0.3369   -2.3135    3.7768 H       1  LIG1        0.0660
     62 H           0.0155   -4.0523    3.4336 H       1  LIG1        0.0660
@<TRIPOS>BOND
     1     1    19    1
     2     1    28    1
     3     2    28    1
     4     2    21    1
     5     3    22    1
     6     3    34    1
     7     4    23    1
     8     4    35    1
     9     5    25    1
    10     5    36    1
    11     6    15    2
    12     7    27   ar
    13     8    27   ar
    14     9    33    1
    15     9    37    1
    16    10    11    1
    17    10    12    1
    18    11    13    2
    19    11    15    1
    20    12    16   ar
    21    12    17   ar
    22    13    14    1
    23    13    27    1
    24    14    20   ar
    25    14    18   ar
    26    15    24    1
    27    16    23   ar
    28    17    22   ar
    29    18    19   ar
    30    19    21   ar
    31    20    26   ar
    32    21    26   ar
    33    22    25   ar
    34    23    25   ar
    35    24    29   ar
    36    24    30   ar
    37    29    31   ar
    38    30    32   ar
    39    31    33   ar
    40    32    33   ar
    41    10    38    1
    42    10    39    1
    43    16    40    1
    44    17    41    1
    45    18    42    1
    46    20    43    1
    47    26    44    1
    48    28    45    1
    49    28    46    1
    50    29    47    1
    51    30    48    1
    52    31    49    1
    53    32    50    1
    54    34    51    1
    55    34    52    1
    56    34    53    1
    57    35    54    1
    58    35    55    1
    59    35    56    1
    60    36    57    1
    61    36    58    1
    62    36    59    1
    63    37    60    1
    64    37    61    1
    65    37    62    1
@<TRIPOS>MOLECULE
9871593
 62 65 0 0 0
SMALL
GASTEIGER

@<TRIPOS>ATOM
      1 O          10.3871    0.8082   -2.6514 O.3     1  LIG1       -0.4526
      2 O          11.6770    2.0793   -1.0546 O.3     1  LIG1       -0.4526
      3 O           7.5169    2.2146    5.1909 O.3     1  LIG1       -0.4913
      4 O           3.7500    4.0296    2.7106 O.3     1  LIG1       -0.4913
      5 O           5.4402    4.1104    5.0052 O.3     1  LIG1       -0.4885
      6 O           6.5601   -2.5175    3.2371 O.2     1  LIG1       -0.2870
      7 O           9.5973   -3.3234    1.5606 O.co2   1  LIG1       -0.5446
      8 O           7.6336   -3.9268    0.5387 O.co2   1  LIG1       -0.5446
      9 O           0.3449   -2.2977    2.4213 O.3     1  LIG1       -0.4951
     10 C           6.2864    0.1928    0.9407 C.3     1  LIG1        0.0021
     11 C           6.7974   -1.1814    1.2922 C.2     1  LIG1        0.0135
     12 C           6.0101    1.1620    2.0657 C.ar    1  LIG1       -0.0358
     13 C           8.0226   -1.6332    0.9336 C.2     1  LIG1        0.0117
     14 C           9.0641   -0.7434    0.3997 C.ar    1  LIG1       -0.0121
     15 C           6.0048   -2.0356    2.2437 C.2     1  LIG1        0.1901
     16 C           4.9936    2.1151    1.9019 C.ar    1  LIG1       -0.0126
     17 C           6.8120    1.2344    3.2047 C.ar    1  LIG1       -0.0126
     18 C           9.2206   -0.5315   -0.9750 C.ar    1  LIG1       -0.0084
     19 C          10.1294    0.4355   -1.3684 C.ar    1  LIG1        0.1668
     20 C           9.8484   -0.0097    1.3244 C.ar    1  LIG1       -0.0503
     21 C          10.8676    1.1629   -0.4585 C.ar    1  LIG1        0.1663
     22 C           6.5942    2.2233    4.1731 C.ar    1  LIG1        0.1654
     23 C           4.7499    3.1024    2.8659 C.ar    1  LIG1        0.1654
     24 C           4.5183   -2.1334    2.1717 C.ar    1  LIG1        0.0222
     25 C           5.5799    3.1824    4.0030 C.ar    1  LIG1        0.2035
     26 C          10.7585    0.9585    0.8963 C.ar    1  LIG1       -0.0156
     27 C           8.4554   -3.1134    1.0654 C.2     1  LIG1        0.0726
     28 C          11.3598    1.8504   -2.4401 C.3     1  LIG1        0.2332
     29 C           3.7671   -1.9360    1.0120 C.ar    1  LIG1       -0.0475
     30 C           3.8419   -2.4444    3.3643 C.ar    1  LIG1       -0.0475
     31 C           2.3627   -1.9638    1.0610 C.ar    1  LIG1       -0.0193
     32 C           2.4471   -2.5040    3.4064 C.ar    1  LIG1       -0.0193
     33 C           1.7018   -2.2271    2.2650 C.ar    1  LIG1        0.1201
     34 C           6.9649    2.3440    6.4946 C.3     1  LIG1        0.0790
     35 C           2.6078    3.6042    1.9739 C.3     1  LIG1        0.0790
     36 C           5.0747    5.4280    4.6148 C.3     1  LIG1        0.0791
     37 C          -0.3999   -1.3802    1.6312 C.3     1  LIG1        0.0788
     38 H           5.3765    0.0771    0.3416 H       1  LIG1        0.0363
     39 H           6.9699    0.7131    0.2602 H       1  LIG1        0.0363
     40 H           4.4167    2.0861    0.9817 H       1  LIG1        0.0658
     41 H           7.6235    0.5258    3.3535 H       1  LIG1        0.0658
     42 H           8.6436   -1.0876   -1.6971 H       1  LIG1        0.0661
     43 H           9.7368   -0.2096    2.3897 H       1  LIG1        0.0625
     44 H          11.3443    1.5243    1.6097 H       1  LIG1        0.0655
     45 H          10.9682    2.7821   -2.8655 H       1  LIG1        0.1166
     46 H          12.2808    1.5853   -2.9715 H       1  LIG1        0.1166
     47 H           4.2608   -1.7887    0.0547 H       1  LIG1        0.0626
     48 H           4.4072   -2.6490    4.2722 H       1  LIG1        0.0626
     49 H           1.8086   -1.8120    0.1396 H       1  LIG1        0.0654
     50 H           1.9488   -2.7537    4.3381 H       1  LIG1        0.0654
     51 H           7.6231    1.8072    7.1854 H       1  LIG1        0.0660
     52 H           5.9652    1.9057    6.5776 H       1  LIG1        0.0660
     53 H           6.9631    3.3941    6.7984 H       1  LIG1        0.0660
     54 H           1.8137    4.3356    2.1452 H       1  LIG1        0.0660
     55 H           2.2478    2.6292    2.3175 H       1  LIG1        0.0660
     56 H           2.8162    3.5926    0.8988 H       1  LIG1        0.0660
     57 H           5.4105    6.1072    5.4047 H       1  LIG1        0.0660
     58 H           3.9857    5.5225    4.5593 H       1  LIG1        0.0660
     59 H           5.5565    5.7375    3.6818 H       1  LIG1        0.0660
     60 H          -1.4302   -1.3798    2.0073 H       1  LIG1        0.0660
     61 H          -0.4288   -1.6890    0.5848 H       1  LIG1        0.0660
     62 H          -0.0120   -0.3582    1.7319 H       1  LIG1        0.0660
@<TRIPOS>BOND
     1     1    19    1
     2     1    28    1
     3     2    28    1
     4     2    21    1
     5     3    22    1
     6     3    34    1
     7     4    23    1
     8     4    35    1
     9     5    25    1
    10     5    36    1
    11     6    15    2
    12     7    27   ar
    13     8    27   ar
    14     9    33    1
    15     9    37    1
    16    10    11    1
    17    10    12    1
    18    11    13    2
    19    11    15    1
    20    12    16   ar
    21    12    17   ar
    22    13    14    1
    23    13    27    1
    24    14    20   ar
    25    14    18   ar
    26    15    24    1
    27    16    23   ar
    28    17    22   ar
    29    18    19   ar
    30    19    21   ar
    31    20    26   ar
    32    21    26   ar
    33    22    25   ar
    34    23    25   ar
    35    24    29   ar
    36    24    30   ar
    37    29    31   ar
    38    30    32   ar
    39    31    33   ar
    40    32    33   ar
    41    10    38    1
    42    10    39    1
    43    16    40    1
    44    17    41    1
    45    18    42    1
    46    20    43    1
    47    26    44    1
    48    28    45    1
    49    28    46    1
    50    29    47    1
    51    30    48    1
    52    31    49    1
    53    32    50    1
    54    34    51    1
    55    34    52    1
    56    34    53    1
    57    35    54    1
    58    35    55    1
    59    35    56    1
    60    36    57    1
    61    36    58    1
    62    36    59    1
    63    37    60    1
    64    37    61    1
    65    37    62    1
@<TRIPOS>MOLECULE
9871593
 62 65 0 0 0
SMALL
GASTEIGER

@<TRIPOS>ATOM
      1 O          10.3749    0.8044   -2.6716 O.3     1  LIG1       -0.4526
      2 O          11.6782    2.0650   -1.0765 O.3     1  LIG1       -0.4526
      3 O           7.2564    1.9874    5.4009 O.3     1  LIG1       -0.4913
      4 O           3.8317    4.0990    2.6638 O.3     1  LIG1       -0.4913
      5 O           5.3237    4.0293    5.0879 O.3     1  LIG1       -0.4885
      6 O           6.5653   -2.5432    3.2267 O.2     1  LIG1       -0.2870
      7 O           9.5864   -3.3339    1.5203 O.co2   1  LIG1       -0.5446
      8 O           7.6221   -3.9188    0.4893 O.co2   1  LIG1       -0.5446
      9 O           0.3533   -2.2998    2.3867 O.3     1  LIG1       -0.4951
     10 C           6.2814    0.1941    0.9677 C.3     1  LIG1        0.0021
     11 C           6.7963   -1.1831    1.2993 C.2     1  LIG1        0.0135
     12 C           6.0004    1.1540    2.0994 C.ar    1  LIG1       -0.0358
     13 C           8.0151   -1.6338    0.9202 C.2     1  LIG1        0.0117
     14 C           9.0509   -0.7400    0.3831 C.ar    1  LIG1       -0.0121
     15 C           6.0106   -2.0480    2.2433 C.2     1  LIG1        0.1901
     16 C           5.0583    2.1707    1.8856 C.ar    1  LIG1       -0.0126
     17 C           6.7103    1.1462    3.3016 C.ar    1  LIG1       -0.0126
     18 C           9.2074   -0.5267   -0.9911 C.ar    1  LIG1       -0.0084
     19 C          10.1167    0.4341   -1.3872 C.ar    1  LIG1        0.1668
     20 C           9.8357   -0.0080    1.3070 C.ar    1  LIG1       -0.0503
     21 C          10.8622    1.1551   -0.4782 C.ar    1  LIG1        0.1663
     22 C           6.4977    2.1395    4.2658 C.ar    1  LIG1        0.1654
     23 C           4.7914    3.1373    2.8628 C.ar    1  LIG1        0.1654
     24 C           4.5239   -2.1373    2.1715 C.ar    1  LIG1        0.0222
     25 C           5.5396    3.1494    4.0547 C.ar    1  LIG1        0.2035
     26 C          10.7524    0.9521    0.8777 C.ar    1  LIG1       -0.0156
     27 C           8.4432   -3.1152    1.0282 C.2     1  LIG1        0.0726
     28 C          11.3642    1.8311   -2.4628 C.3     1  LIG1        0.2332
     29 C           3.7839   -1.9712    0.9973 C.ar    1  LIG1       -0.0475
     30 C           3.8403   -2.4172    3.3658 C.ar    1  LIG1       -0.0475
     31 C           2.3795   -1.9998    1.0361 C.ar    1  LIG1       -0.0193
     32 C           2.4469   -2.4748    3.3985 C.ar    1  LIG1       -0.0193
     33 C           1.7113   -2.2306    2.2417 C.ar    1  LIG1        0.1201
     34 C           7.8702    3.1803    5.8730 C.3     1  LIG1        0.0790
     35 C           2.6521    3.6409    2.0088 C.3     1  LIG1        0.0790
     36 C           5.0761    5.3793    4.7137 C.3     1  LIG1        0.0791
     37 C          -0.3797   -1.3799    1.5865 C.3     1  LIG1        0.0788
     38 H           5.3706    0.0807    0.3698 H       1  LIG1        0.0363
     39 H           6.9648    0.7226    0.2928 H       1  LIG1        0.0363
     40 H           4.5419    2.2012    0.9304 H       1  LIG1        0.0658
     41 H           7.4548    0.3752    3.4974 H       1  LIG1        0.0658
     42 H           8.6230   -1.0840   -1.7140 H       1  LIG1        0.0661
     43 H           9.7229   -0.2063    2.3716 H       1  LIG1        0.0625
     44 H          11.3467    1.5130    1.5881 H       1  LIG1        0.0655
     45 H          10.9911    2.7667   -2.8954 H       1  LIG1        0.1166
     46 H          12.2840    1.5471   -2.9863 H       1  LIG1        0.1166
     47 H           4.2865   -1.8434    0.0426 H       1  LIG1        0.0626
     48 H           4.4013   -2.5948    4.2828 H       1  LIG1        0.0626
     49 H           1.8318   -1.8737    0.1079 H       1  LIG1        0.0654
     50 H           1.9406   -2.6991    4.3327 H       1  LIG1        0.0654
     51 H           8.7984    2.8975    6.3798 H       1  LIG1        0.0660
     52 H           7.2305    3.6672    6.6146 H       1  LIG1        0.0660
     53 H           8.1324    3.8725    5.0648 H       1  LIG1        0.0660
     54 H           1.8593    4.3686    2.2063 H       1  LIG1        0.0660
     55 H           2.3203    2.6704    2.3945 H       1  LIG1        0.0660
     56 H           2.8012    3.6020    0.9251 H       1  LIG1        0.0660
     57 H           5.4202    6.0175    5.5332 H       1  LIG1        0.0660
     58 H           4.0013    5.5506    4.6018 H       1  LIG1        0.0660
     59 H           5.6243    5.6780    3.8130 H       1  LIG1        0.0660
     60 H          -1.4075   -1.3584    1.9640 H       1  LIG1        0.0660
     61 H          -0.4155   -1.7080    0.5440 H       1  LIG1        0.0660
     62 H           0.0252   -0.3654    1.6676 H       1  LIG1        0.0660
@<TRIPOS>BOND
     1     1    19    1
     2     1    28    1
     3     2    28    1
     4     2    21    1
     5     3    22    1
     6     3    34    1
     7     4    23    1
     8     4    35    1
     9     5    25    1
    10     5    36    1
    11     6    15    2
    12     7    27   ar
    13     8    27   ar
    14     9    33    1
    15     9    37    1
    16    10    11    1
    17    10    12    1
    18    11    13    2
    19    11    15    1
    20    12    16   ar
    21    12    17   ar
    22    13    14    1
    23    13    27    1
    24    14    20   ar
    25    14    18   ar
    26    15    24    1
    27    16    23   ar
    28    17    22   ar
    29    18    19   ar
    30    19    21   ar
    31    20    26   ar
    32    21    26   ar
    33    22    25   ar
    34    23    25   ar
    35    24    29   ar
    36    24    30   ar
    37    29    31   ar
    38    30    32   ar
    39    31    33   ar
    40    32    33   ar
    41    10    38    1
    42    10    39    1
    43    16    40    1
    44    17    41    1
    45    18    42    1
    46    20    43    1
    47    26    44    1
    48    28    45    1
    49    28    46    1
    50    29    47    1
    51    30    48    1
    52    31    49    1
    53    32    50    1
    54    34    51    1
    55    34    52    1
    56    34    53    1
    57    35    54    1
    58    35    55    1
    59    35    56    1
    60    36    57    1
    61    36    58    1
    62    36    59    1
    63    37    60    1
    64    37    61    1
    65    37    62    1
@<TRIPOS>MOLECULE
9871593
 62 65 0 0 0
SMALL
GASTEIGER

@<TRIPOS>ATOM
      1 O          10.1202    0.8239   -2.7131 O.3     1  LIG1       -0.4526
      2 O          11.7578    1.8101   -1.2386 O.3     1  LIG1       -0.4526
      3 O           3.9035    2.9465    4.3688 O.3     1  LIG1       -0.4913
      4 O           8.1225    4.5107    2.5972 O.3     1  LIG1       -0.4913
      5 O           6.0129    4.8592    4.3392 O.3     1  LIG1       -0.4885
      6 O           6.4588   -2.0401    3.5390 O.2     1  LIG1       -0.2870
      7 O           9.4309   -3.1930    1.7575 O.co2   1  LIG1       -0.5446
      8 O           7.4057   -3.8034    0.8724 O.co2   1  LIG1       -0.5446
      9 O           0.3412   -2.5284    2.1367 O.3     1  LIG1       -0.4951
     10 C           6.0942    0.2904    0.9467 C.3     1  LIG1        0.0021
     11 C           6.6842   -1.0109    1.4164 C.2     1  LIG1        0.0135
     12 C           6.1202    1.4526    1.9088 C.ar    1  LIG1       -0.0358
     13 C           7.8896   -1.5006    1.0467 C.2     1  LIG1        0.0117
     14 C           8.9382   -0.6865    0.4180 C.ar    1  LIG1       -0.0121
     15 C           5.9310   -1.7932    2.4527 C.2     1  LIG1        0.1901
     16 C           7.1710    2.3810    1.8574 C.ar    1  LIG1       -0.0126
     17 C           5.0565    1.6782    2.7883 C.ar    1  LIG1       -0.0126
     18 C           8.9675   -0.4192   -0.9552 C.ar    1  LIG1       -0.0084
     19 C           9.9534    0.4296   -1.4200 C.ar    1  LIG1        0.1668
     20 C           9.9135   -0.1096    1.2682 C.ar    1  LIG1       -0.0503
     21 C          10.8905    0.9938   -0.5811 C.ar    1  LIG1        0.1663
     22 C           5.0164    2.8324    3.5733 C.ar    1  LIG1        0.1654
     23 C           7.1591    3.5338    2.6505 C.ar    1  LIG1        0.1654
     24 C           4.4801   -2.0749    2.2868 C.ar    1  LIG1        0.0222
     25 C           6.0844    3.7437    3.5373 C.ar    1  LIG1        0.2035
     26 C          10.9047    0.7369    0.7696 C.ar    1  LIG1       -0.0156
     27 C           8.2790   -2.9798    1.2883 C.2     1  LIG1        0.0726
     28 C          11.2875    1.6608   -2.5922 C.3     1  LIG1        0.2332
     29 C           3.8553   -2.1769    1.0402 C.ar    1  LIG1       -0.0475
     30 C           3.7113   -2.2154    3.4531 C.ar    1  LIG1       -0.0475
     31 C           2.4637   -2.3241    0.9641 C.ar    1  LIG1       -0.0193
     32 C           2.3292   -2.3835    3.3765 C.ar    1  LIG1       -0.0193
     33 C           1.7033   -2.3932    2.1340 C.ar    1  LIG1        0.1201
     34 C           3.2842    4.2284    4.3145 C.3     1  LIG1        0.0790
     35 C           9.1602    4.3517    1.6375 C.3     1  LIG1        0.0790
     36 C           7.1147    4.9519    5.2403 C.3     1  LIG1        0.0791
     37 C          -0.3047   -1.5187    1.3648 C.3     1  LIG1        0.0788
     38 H           5.0561    0.1442    0.6274 H       1  LIG1        0.0363
     39 H           6.5739    0.6137    0.0141 H       1  LIG1        0.0363
     40 H           7.9808    2.1860    1.1613 H       1  LIG1        0.0658
     41 H           4.2282    0.9756    2.8399 H       1  LIG1        0.0658
     42 H           8.2408   -0.8593   -1.6275 H       1  LIG1        0.0661
     43 H           9.8950   -0.3516    2.3315 H       1  LIG1        0.0625
     44 H          11.6529    1.1645    1.4248 H       1  LIG1        0.0655
     45 H          11.0461    2.6549   -2.9859 H       1  LIG1        0.1166
     46 H          12.0944    1.2320   -3.1978 H       1  LIG1        0.1166
     47 H           4.4445   -2.1529    0.1266 H       1  LIG1        0.0626
     48 H           4.1940   -2.1819    4.4285 H       1  LIG1        0.0626
     49 H           1.9923   -2.4028   -0.0101 H       1  LIG1        0.0654
     50 H           1.7458   -2.4850    4.2867 H       1  LIG1        0.0654
     51 H           2.2093    4.0829    4.4614 H       1  LIG1        0.0660
     52 H           3.4191    4.7282    3.3482 H       1  LIG1        0.0660
     53 H           3.6456    4.8564    5.1338 H       1  LIG1        0.0660
     54 H           9.8046    5.2342    1.6954 H       1  LIG1        0.0660
     55 H           8.7577    4.3047    0.6199 H       1  LIG1        0.0660
     56 H           9.7759    3.4762    1.8651 H       1  LIG1        0.0660
     57 H           6.7422    5.3821    6.1750 H       1  LIG1        0.0660
     58 H           7.8670    5.6374    4.8388 H       1  LIG1        0.0660
     59 H           7.5656    3.9806    5.4745 H       1  LIG1        0.0660
     60 H          -1.3517   -1.4766    1.6812 H       1  LIG1        0.0660
     61 H          -0.2841   -1.7732    0.3010 H       1  LIG1        0.0660
     62 H           0.1343   -0.5285    1.5353 H       1  LIG1        0.0660
@<TRIPOS>BOND
     1     1    19    1
     2     1    28    1
     3     2    28    1
     4     2    21    1
     5     3    22    1
     6     3    34    1
     7     4    23    1
     8     4    35    1
     9     5    25    1
    10     5    36    1
    11     6    15    2
    12     7    27   ar
    13     8    27   ar
    14     9    33    1
    15     9    37    1
    16    10    11    1
    17    10    12    1
    18    11    13    2
    19    11    15    1
    20    12    16   ar
    21    12    17   ar
    22    13    14    1
    23    13    27    1
    24    14    20   ar
    25    14    18   ar
    26    15    24    1
    27    16    23   ar
    28    17    22   ar
    29    18    19   ar
    30    19    21   ar
    31    20    26   ar
    32    21    26   ar
    33    22    25   ar
    34    23    25   ar
    35    24    29   ar
    36    24    30   ar
    37    29    31   ar
    38    30    32   ar
    39    31    33   ar
    40    32    33   ar
    41    10    38    1
    42    10    39    1
    43    16    40    1
    44    17    41    1
    45    18    42    1
    46    20    43    1
    47    26    44    1
    48    28    45    1
    49    28    46    1
    50    29    47    1
    51    30    48    1
    52    31    49    1
    53    32    50    1
    54    34    51    1
    55    34    52    1
    56    34    53    1
    57    35    54    1
    58    35    55    1
    59    35    56    1
    60    36    57    1
    61    36    58    1
    62    36    59    1
    63    37    60    1
    64    37    61    1
    65    37    62    1
@<TRIPOS>MOLECULE
9871593
 62 65 0 0 0
SMALL
GASTEIGER

@<TRIPOS>ATOM
      1 O          10.2818    0.7225   -2.7686 O.3     1  LIG1       -0.4526
      2 O          11.7077    1.9504   -1.2553 O.3     1  LIG1       -0.4526
      3 O           7.1561    2.0307    5.5448 O.3     1  LIG1       -0.4913
      4 O           3.6969    4.0601    2.8323 O.3     1  LIG1       -0.4913
      5 O           5.1925    4.0226    5.2139 O.3     1  LIG1       -0.4885
      6 O           6.5862   -2.4044    3.3766 O.2     1  LIG1       -0.2870
      7 O           9.5633   -3.3332    1.4819 O.co2   1  LIG1       -0.5446
      8 O           7.5299   -3.8595    0.5589 O.co2   1  LIG1       -0.5446
      9 O           0.4184   -2.4207    2.1781 O.3     1  LIG1       -0.4951
     10 C           6.2758    0.2456    1.0749 C.3     1  LIG1        0.0021
     11 C           6.8182   -1.1241    1.3922 C.2     1  LIG1        0.0135
     12 C           5.9566    1.1821    2.2192 C.ar    1  LIG1       -0.0358
     13 C           8.0127   -1.5883    0.9652 C.2     1  LIG1        0.0117
     14 C           9.0340   -0.7180    0.3688 C.ar    1  LIG1       -0.0121
     15 C           6.0499   -1.9808    2.3526 C.2     1  LIG1        0.1901
     16 C           4.9762    2.1678    2.0160 C.ar    1  LIG1       -0.0126
     17 C           6.6635    1.1798    3.4237 C.ar    1  LIG1       -0.0126
     18 C           9.1328   -0.5284   -1.0144 C.ar    1  LIG1       -0.0084
     19 C          10.0629    0.3881   -1.4666 C.ar    1  LIG1        0.1668
     20 C           9.8808    0.0013    1.2448 C.ar    1  LIG1       -0.0503
     21 C          10.8756    1.0909   -0.6042 C.ar    1  LIG1        0.1663
     22 C           6.4137    2.1538    4.3964 C.ar    1  LIG1        0.1654
     23 C           4.6803    3.1174    3.0012 C.ar    1  LIG1        0.1654
     24 C           4.5798   -2.1221    2.2139 C.ar    1  LIG1        0.0222
     25 C           5.4319    3.1380    4.1887 C.ar    1  LIG1        0.2035
     26 C          10.8141    0.9160    0.7587 C.ar    1  LIG1       -0.0156
     27 C           8.4035   -3.0796    1.0504 C.2     1  LIG1        0.0726
     28 C          11.3397    1.6914   -2.6231 C.3     1  LIG1        0.2332
     29 C           3.9377   -2.2075    0.9771 C.ar    1  LIG1       -0.0475
     30 C           3.8201   -2.1769    3.3894 C.ar    1  LIG1       -0.0475
     31 C           2.5385   -2.3039    0.9170 C.ar    1  LIG1       -0.0193
     32 C           2.4301   -2.2770    3.3255 C.ar    1  LIG1       -0.0193
     33 C           1.7807   -2.3345    2.0921 C.ar    1  LIG1        0.1201
     34 C           7.8656    3.2163    5.8872 C.3     1  LIG1        0.0790
     35 C           2.5552    3.6221    2.1008 C.3     1  LIG1        0.0790
     36 C           5.1360    5.3855    4.8028 C.3     1  LIG1        0.0791
     37 C          -0.2972   -2.5314    0.9565 C.3     1  LIG1        0.0788
     38 H           5.3682    0.1067    0.4740 H       1  LIG1        0.0363
     39 H           6.9534    0.7991    0.4148 H       1  LIG1        0.0363
     40 H           4.4554    2.1863    1.0623 H       1  LIG1        0.0658
     41 H           7.4301    0.4299    3.6144 H       1  LIG1        0.0658
     42 H           8.4993   -1.0755   -1.7016 H       1  LIG1        0.0661
     43 H           9.8086   -0.1766    2.3174 H       1  LIG1        0.0625
     44 H          11.4640    1.4623    1.4306 H       1  LIG1        0.0655
     45 H          11.0145    2.6333   -3.0783 H       1  LIG1        0.1166
     46 H          12.2237    1.3307   -3.1610 H       1  LIG1        0.1166
     47 H           4.5216   -2.2243    0.0594 H       1  LIG1        0.0626
     48 H           4.3151   -2.1366    4.3584 H       1  LIG1        0.0626
     49 H           2.0769   -2.3651   -0.0607 H       1  LIG1        0.0654
     50 H           1.8556   -2.3182    4.2487 H       1  LIG1        0.0654
     51 H           8.8009    2.9161    6.3702 H       1  LIG1        0.0660
     52 H           7.2926    3.8009    6.6122 H       1  LIG1        0.0660
     53 H           8.1236    3.8282    5.0148 H       1  LIG1        0.0660
     54 H           1.7421    4.3257    2.3025 H       1  LIG1        0.0660
     55 H           2.2232    2.6276    2.4182 H       1  LIG1        0.0660
     56 H           2.7526    3.6463    1.0246 H       1  LIG1        0.0660
     57 H           5.5350    5.9947    5.6203 H       1  LIG1        0.0660
     58 H           4.0969    5.6897    4.6463 H       1  LIG1        0.0660
     59 H           5.7425    5.5909    3.9126 H       1  LIG1        0.0660
     60 H          -1.3598   -2.6203    1.2007 H       1  LIG1        0.0660
     61 H          -0.0056   -3.4317    0.4053 H       1  LIG1        0.0660
     62 H          -0.1706   -1.6316    0.3442 H       1  LIG1        0.0660
@<TRIPOS>BOND
     1     1    19    1
     2     1    28    1
     3     2    28    1
     4     2    21    1
     5     3    22    1
     6     3    34    1
     7     4    23    1
     8     4    35    1
     9     5    25    1
    10     5    36    1
    11     6    15    2
    12     7    27   ar
    13     8    27   ar
    14     9    33    1
    15     9    37    1
    16    10    11    1
    17    10    12    1
    18    11    13    2
    19    11    15    1
    20    12    16   ar
    21    12    17   ar
    22    13    14    1
    23    13    27    1
    24    14    20   ar
    25    14    18   ar
    26    15    24    1
    27    16    23   ar
    28    17    22   ar
    29    18    19   ar
    30    19    21   ar
    31    20    26   ar
    32    21    26   ar
    33    22    25   ar
    34    23    25   ar
    35    24    29   ar
    36    24    30   ar
    37    29    31   ar
    38    30    32   ar
    39    31    33   ar
    40    32    33   ar
    41    10    38    1
    42    10    39    1
    43    16    40    1
    44    17    41    1
    45    18    42    1
    46    20    43    1
    47    26    44    1
    48    28    45    1
    49    28    46    1
    50    29    47    1
    51    30    48    1
    52    31    49    1
    53    32    50    1
    54    34    51    1
    55    34    52    1
    56    34    53    1
    57    35    54    1
    58    35    55    1
    59    35    56    1
    60    36    57    1
    61    36    58    1
    62    36    59    1
    63    37    60    1
    64    37    61    1
    65    37    62    1
@<TRIPOS>MOLECULE
9871593
 62 65 0 0 0
SMALL
GASTEIGER

@<TRIPOS>ATOM
      1 O          11.9844    1.0873    1.6621 O.3     1  LIG1       -0.4526
      2 O          12.5667    0.8708   -0.6714 O.3     1  LIG1       -0.4526
      3 O           8.8441    4.6172    1.1480 O.3     1  LIG1       -0.4913
      4 O           8.0035    2.2995   -3.0808 O.3     1  LIG1       -0.4913
      5 O           9.1668    4.5239   -1.6964 O.3     1  LIG1       -0.4885
      6 O           6.1610   -1.8234    3.5542 O.2     1  LIG1       -0.2870
      7 O           9.1477   -3.4467    2.0677 O.co2   1  LIG1       -0.5446
      8 O           7.1407   -3.8316    1.0340 O.co2   1  LIG1       -0.5446
      9 O           0.3323   -2.6461    1.5791 O.3     1  LIG1       -0.4951
     10 C           6.2694    0.4243    1.0237 C.3     1  LIG1        0.0021
     11 C           6.7444   -0.9504    1.4024 C.2     1  LIG1        0.0135
     12 C           7.1419    1.4397    0.3281 C.ar    1  LIG1       -0.0358
     13 C           7.9109   -1.5925    1.1720 C.2     1  LIG1        0.0117
     14 C           9.1245   -0.9793    0.6207 C.ar    1  LIG1       -0.0121
     15 C           5.8213   -1.6312    2.3877 C.2     1  LIG1        0.1901
     16 C           7.2858    1.4456   -1.0610 C.ar    1  LIG1       -0.0126
     17 C           7.7160    2.4823    1.0616 C.ar    1  LIG1       -0.0126
     18 C           9.9510   -0.2442    1.4874 C.ar    1  LIG1       -0.0084
     19 C          11.0821    0.3426    0.9666 C.ar    1  LIG1        0.1668
     20 C           9.4776   -1.1187   -0.7366 C.ar    1  LIG1       -0.0503
     21 C          11.4122    0.2184   -0.3625 C.ar    1  LIG1        0.1663
     22 C           8.3686    3.5488    0.4257 C.ar    1  LIG1        0.1654
     23 C           7.9657    2.4822   -1.7187 C.ar    1  LIG1        0.1654
     24 C           4.3993   -1.8450    2.0486 C.ar    1  LIG1        0.0222
     25 C           8.5358    3.5392   -0.9767 C.ar    1  LIG1        0.2035
     26 C          10.6325   -0.5058   -1.2401 C.ar    1  LIG1       -0.0156
     27 C           8.0812   -3.1066    1.4825 C.2     1  LIG1        0.0726
     28 C          12.9382    1.3802    0.6254 C.3     1  LIG1        0.2332
     29 C           3.9284   -3.1432    1.8621 C.ar    1  LIG1       -0.0475
     30 C           3.4913   -0.7819    2.1183 C.ar    1  LIG1       -0.0475
     31 C           2.5550   -3.3650    1.7047 C.ar    1  LIG1       -0.0193
     32 C           2.1239   -1.0039    1.9363 C.ar    1  LIG1       -0.0193
     33 C           1.6480   -2.2989    1.7317 C.ar    1  LIG1        0.1201
     34 C           8.0970    4.9609    2.3112 C.3     1  LIG1        0.0790
     35 C           8.0756    3.4593   -3.8962 C.3     1  LIG1        0.0790
     36 C          10.1794    5.2851   -1.0557 C.3     1  LIG1        0.0791
     37 C          -0.6014   -1.5765    1.4912 C.3     1  LIG1        0.0788
     38 H           5.8997    0.9139    1.9351 H       1  LIG1        0.0363
     39 H           5.3874    0.3046    0.3794 H       1  LIG1        0.0363
     40 H           6.8535    0.6387   -1.6506 H       1  LIG1        0.0658
     41 H           7.6273    2.4518    2.1438 H       1  LIG1        0.0658
     42 H           9.7139   -0.1621    2.5424 H       1  LIG1        0.0661
     43 H           8.8461   -1.7073   -1.3978 H       1  LIG1        0.0625
     44 H          10.9049   -0.6019   -2.2838 H       1  LIG1        0.0655
     45 H          13.9057    0.9480    0.9078 H       1  LIG1        0.1166
     46 H          13.0520    2.4683    0.5544 H       1  LIG1        0.1166
     47 H           4.6279   -3.9790    1.8653 H       1  LIG1        0.0626
     48 H           3.8302    0.2216    2.3525 H       1  LIG1        0.0626
     49 H           2.1932   -4.3819    1.5764 H       1  LIG1        0.0654
     50 H           1.4610   -0.1482    1.9933 H       1  LIG1        0.0654
     51 H           8.3734    5.9809    2.5945 H       1  LIG1        0.0660
     52 H           8.3554    4.3033    3.1469 H       1  LIG1        0.0660
     53 H           7.0177    4.9514    2.1204 H       1  LIG1        0.0660
     54 H           7.7287    3.1805   -4.8965 H       1  LIG1        0.0660
     55 H           9.1111    3.7967   -3.9995 H       1  LIG1        0.0660
     56 H           7.4194    4.2598   -3.5381 H       1  LIG1        0.0660
     57 H          10.7995    5.7321   -1.8397 H       1  LIG1        0.0660
     58 H          10.8354    4.6692   -0.4322 H       1  LIG1        0.0660
     59 H           9.7377    6.1138   -0.4937 H       1  LIG1        0.0660
     60 H          -1.5965   -2.0092    1.3493 H       1  LIG1        0.0660
     61 H          -0.3885   -0.9387    0.6264 H       1  LIG1        0.0660
     62 H          -0.6267   -0.9907    2.4167 H       1  LIG1        0.0660
@<TRIPOS>BOND
     1     1    19    1
     2     1    28    1
     3     2    28    1
     4     2    21    1
     5     3    22    1
     6     3    34    1
     7     4    23    1
     8     4    35    1
     9     5    25    1
    10     5    36    1
    11     6    15    2
    12     7    27   ar
    13     8    27   ar
    14     9    33    1
    15     9    37    1
    16    10    11    1
    17    10    12    1
    18    11    13    2
    19    11    15    1
    20    12    16   ar
    21    12    17   ar
    22    13    14    1
    23    13    27    1
    24    14    20   ar
    25    14    18   ar
    26    15    24    1
    27    16    23   ar
    28    17    22   ar
    29    18    19   ar
    30    19    21   ar
    31    20    26   ar
    32    21    26   ar
    33    22    25   ar
    34    23    25   ar
    35    24    29   ar
    36    24    30   ar
    37    29    31   ar
    38    30    32   ar
    39    31    33   ar
    40    32    33   ar
    41    10    38    1
    42    10    39    1
    43    16    40    1
    44    17    41    1
    45    18    42    1
    46    20    43    1
    47    26    44    1
    48    28    45    1
    49    28    46    1
    50    29    47    1
    51    30    48    1
    52    31    49    1
    53    32    50    1
    54    34    51    1
    55    34    52    1
    56    34    53    1
    57    35    54    1
    58    35    55    1
    59    35    56    1
    60    36    57    1
    61    36    58    1
    62    36    59    1
    63    37    60    1
    64    37    61    1
    65    37    62    1
@<TRIPOS>MOLECULE
9871593
 62 65 0 0 0
SMALL
GASTEIGER

@<TRIPOS>ATOM
      1 O          12.0342    0.8628    1.5887 O.3     1  LIG1       -0.4526
      2 O          12.4857    0.8471   -0.7838 O.3     1  LIG1       -0.4526
      3 O           8.9324    3.8723   -1.0924 O.3     1  LIG1       -0.4913
      4 O           8.7197    3.5190    3.6489 O.3     1  LIG1       -0.4913
      5 O           9.5770    4.8092    1.2753 O.3     1  LIG1       -0.4885
      6 O           6.2997   -2.0384    3.5085 O.2     1  LIG1       -0.2870
      7 O           9.2085   -3.6088    1.9616 O.co2   1  LIG1       -0.5446
      8 O           7.2139   -4.0061    0.9031 O.co2   1  LIG1       -0.5446
      9 O           0.2801   -2.3193    1.7204 O.3     1  LIG1       -0.4951
     10 C           6.2624    0.1961    0.9285 C.3     1  LIG1        0.0021
     11 C           6.7523   -1.1624    1.3600 C.2     1  LIG1        0.0135
     12 C           7.1950    1.3775    1.0408 C.ar    1  LIG1       -0.0358
     13 C           7.9345   -1.7660    1.1043 C.2     1  LIG1        0.0117
     14 C           9.1165   -1.1161    0.5302 C.ar    1  LIG1       -0.0121
     15 C           5.8751   -1.8577    2.3642 C.2     1  LIG1        0.1901
     16 C           7.5666    1.8601    2.3014 C.ar    1  LIG1       -0.0126
     17 C           7.6486    2.0390   -0.1089 C.ar    1  LIG1       -0.0126
     18 C           9.9995   -0.4652    1.4108 C.ar    1  LIG1       -0.0084
     19 C          11.0984    0.1719    0.8831 C.ar    1  LIG1        0.1668
     20 C           9.3862   -1.1316   -0.8512 C.ar    1  LIG1       -0.0503
     21 C          11.3525    0.1622   -0.4671 C.ar    1  LIG1        0.1663
     22 C           8.4671    3.1671   -0.0065 C.ar    1  LIG1        0.1654
     23 C           8.3866    2.9878    2.4270 C.ar    1  LIG1        0.1654
     24 C           4.4282   -2.0879    2.0900 C.ar    1  LIG1        0.0222
     25 C           8.8316    3.6503    1.2659 C.ar    1  LIG1        0.2035
     26 C          10.5226   -0.4875   -1.3593 C.ar    1  LIG1       -0.0156
     27 C           8.1371   -3.2774    1.3842 C.2     1  LIG1        0.0726
     28 C          12.9159    1.2703    0.5275 C.3     1  LIG1        0.2332
     29 C           3.5963   -2.3401    3.1928 C.ar    1  LIG1       -0.0475
     30 C           3.8586   -2.0044    0.8156 C.ar    1  LIG1       -0.0475
     31 C           2.2136   -2.4342    3.0365 C.ar    1  LIG1       -0.0193
     32 C           2.4665   -2.0772    0.6625 C.ar    1  LIG1       -0.0193
     33 C           1.6458   -2.2566    1.7786 C.ar    1  LIG1        0.1201
     34 C           8.9915    3.1660   -2.3251 C.3     1  LIG1        0.0790
     35 C           8.7631    2.5947    4.7330 C.3     1  LIG1        0.0790
     36 C          10.6763    4.8018    2.1774 C.3     1  LIG1        0.0791
     37 C          -0.2964   -1.2810    0.9329 C.3     1  LIG1        0.0788
     38 H           5.3637    0.4750    1.4953 H       1  LIG1        0.0363
     39 H           5.9176    0.1071   -0.1107 H       1  LIG1        0.0363
     40 H           7.1859    1.3394    3.1763 H       1  LIG1        0.0658
     41 H           7.3418    1.6585   -1.0773 H       1  LIG1        0.0658
     42 H           9.8219   -0.4759    2.4812 H       1  LIG1        0.0661
     43 H           8.7182   -1.6649   -1.5224 H       1  LIG1        0.0625
     44 H          10.7475   -0.5031   -2.4186 H       1  LIG1        0.0655
     45 H          13.9111    0.8538    0.7216 H       1  LIG1        0.1166
     46 H          12.9893    2.3644    0.5362 H       1  LIG1        0.1166
     47 H           4.0283   -2.4497    4.1859 H       1  LIG1        0.0626
     48 H           4.4854   -1.8892   -0.0643 H       1  LIG1        0.0626
     49 H           1.5839   -2.6199    3.9018 H       1  LIG1        0.0654
     50 H           2.0440   -2.0106   -0.3348 H       1  LIG1        0.0654
     51 H           9.5757    3.7681   -3.0275 H       1  LIG1        0.0660
     52 H           7.9911    3.0398   -2.7509 H       1  LIG1        0.0660
     53 H           9.4977    2.2024   -2.2163 H       1  LIG1        0.0660
     54 H           9.3087    3.0709    5.5531 H       1  LIG1        0.0660
     55 H           9.2986    1.6767    4.4663 H       1  LIG1        0.0660
     56 H           7.7527    2.3743    5.0916 H       1  LIG1        0.0660
     57 H          11.4637    5.4263    1.7438 H       1  LIG1        0.0660
     58 H          11.0965    3.8021    2.3341 H       1  LIG1        0.0660
     59 H          10.3855    5.2606    3.1271 H       1  LIG1        0.0660
     60 H          -1.3509   -1.1972    1.2134 H       1  LIG1        0.0660
     61 H          -0.2499   -1.5317   -0.1309 H       1  LIG1        0.0660
     62 H           0.1762   -0.3106    1.1256 H       1  LIG1        0.0660
@<TRIPOS>BOND
     1     1    19    1
     2     1    28    1
     3     2    28    1
     4     2    21    1
     5     3    22    1
     6     3    34    1
     7     4    23    1
     8     4    35    1
     9     5    25    1
    10     5    36    1
    11     6    15    2
    12     7    27   ar
    13     8    27   ar
    14     9    33    1
    15     9    37    1
    16    10    11    1
    17    10    12    1
    18    11    13    2
    19    11    15    1
    20    12    16   ar
    21    12    17   ar
    22    13    14    1
    23    13    27    1
    24    14    20   ar
    25    14    18   ar
    26    15    24    1
    27    16    23   ar
    28    17    22   ar
    29    18    19   ar
    30    19    21   ar
    31    20    26   ar
    32    21    26   ar
    33    22    25   ar
    34    23    25   ar
    35    24    29   ar
    36    24    30   ar
    37    29    31   ar
    38    30    32   ar
    39    31    33   ar
    40    32    33   ar
    41    10    38    1
    42    10    39    1
    43    16    40    1
    44    17    41    1
    45    18    42    1
    46    20    43    1
    47    26    44    1
    48    28    45    1
    49    28    46    1
    50    29    47    1
    51    30    48    1
    52    31    49    1
    53    32    50    1
    54    34    51    1
    55    34    52    1
    56    34    53    1
    57    35    54    1
    58    35    55    1
    59    35    56    1
    60    36    57    1
    61    36    58    1
    62    36    59    1
    63    37    60    1
    64    37    61    1
    65    37    62    1
@<TRIPOS>MOLECULE
9871593
 62 65 0 0 0
SMALL
GASTEIGER

@<TRIPOS>ATOM
      1 O          10.0934    0.9115   -2.7359 O.3     1  LIG1       -0.4526
      2 O          11.7423    1.8808   -1.2631 O.3     1  LIG1       -0.4526
      3 O           3.9481    2.9578    4.4505 O.3     1  LIG1       -0.4913
      4 O           8.1591    4.4809    2.6403 O.3     1  LIG1       -0.4913
      5 O           6.0548    4.8525    4.3932 O.3     1  LIG1       -0.4885
      6 O           6.7714   -2.2870    3.4906 O.2     1  LIG1       -0.2870
      7 O           7.4718   -3.8054    0.7502 O.co2   1  LIG1       -0.5446
      8 O           9.5407   -3.2029    1.5351 O.co2   1  LIG1       -0.5446
      9 O           0.4751   -1.9292    3.2504 O.3     1  LIG1       -0.4951
     10 C           6.1087    0.2550    1.0368 C.3     1  LIG1        0.0021
     11 C           6.7382   -1.0430    1.4671 C.2     1  LIG1        0.0135
     12 C           6.1465    1.4177    1.9986 C.ar    1  LIG1       -0.0358
     13 C           7.9281   -1.5019    1.0127 C.2     1  LIG1        0.0117
     14 C           8.9460   -0.6489    0.3825 C.ar    1  LIG1       -0.0121
     15 C           6.0932   -1.8569    2.5559 C.2     1  LIG1        0.1901
     16 C           7.2002    2.3427    1.9350 C.ar    1  LIG1       -0.0126
     17 C           5.0846    1.6611    2.8755 C.ar    1  LIG1       -0.0126
     18 C           8.9574   -0.3576   -0.9850 C.ar    1  LIG1       -0.0084
     19 C           9.9362    0.5018   -1.4470 C.ar    1  LIG1        0.1668
     20 C           9.9275   -0.0798    1.2326 C.ar    1  LIG1       -0.0503
     21 C          10.8802    1.0564   -0.6090 C.ar    1  LIG1        0.1663
     22 C           5.0551    2.8224    3.6500 C.ar    1  LIG1        0.1654
     23 C           7.1950    3.5058    2.7135 C.ar    1  LIG1        0.1654
     24 C           4.6171   -1.9530    2.6893 C.ar    1  LIG1        0.0222
     25 C           6.1263    3.7286    3.6031 C.ar    1  LIG1        0.2035
     26 C          10.9083    0.7794    0.7370 C.ar    1  LIG1       -0.0156
     27 C           8.3550   -2.9877    1.1580 C.2     1  LIG1        0.0726
     28 C          11.2726    1.7319   -2.6168 C.3     1  LIG1        0.2332
     29 C           3.7321   -1.9659    1.6117 C.ar    1  LIG1       -0.0475
     30 C           4.1025   -2.0123    3.9940 C.ar    1  LIG1       -0.0475
     31 C           2.3495   -1.9534    1.8486 C.ar    1  LIG1       -0.0193
     32 C           2.7258   -2.0194    4.2268 C.ar    1  LIG1       -0.0193
     33 C           1.8404   -1.9675    3.1533 C.ar    1  LIG1        0.1201
     34 C           3.3053    4.2229    4.3160 C.3     1  LIG1        0.0790
     35 C           9.1650    4.3292    1.6457 C.3     1  LIG1        0.0790
     36 C           7.1690    4.9716    5.2752 C.3     1  LIG1        0.0791
     37 C          -0.0663   -1.9452    4.5672 C.3     1  LIG1        0.0788
     38 H           5.0669    0.0940    0.7413 H       1  LIG1        0.0363
     39 H           6.5524    0.5951    0.0918 H       1  LIG1        0.0363
     40 H           8.0044    2.1411    1.2345 H       1  LIG1        0.0658
     41 H           4.2442    0.9738    2.9282 H       1  LIG1        0.0658
     42 H           8.2287   -0.7947   -1.6575 H       1  LIG1        0.0661
     43 H           9.9256   -0.3445    2.2901 H       1  LIG1        0.0625
     44 H          11.6640    1.1991    1.3910 H       1  LIG1        0.0655
     45 H          11.0471    2.7273   -3.0158 H       1  LIG1        0.1166
     46 H          12.0746    1.2879   -3.2183 H       1  LIG1        0.1166
     47 H           4.1024   -1.9873    0.5900 H       1  LIG1        0.0626
     48 H           4.7853   -2.0385    4.8426 H       1  LIG1        0.0626
     49 H           1.6625   -1.9353    1.0061 H       1  LIG1        0.0654
     50 H           2.3913   -2.0570    5.2574 H       1  LIG1        0.0654
     51 H           2.2316    4.0663    4.4605 H       1  LIG1        0.0660
     52 H           3.4426    4.6711    3.3248 H       1  LIG1        0.0660
     53 H           3.6475    4.9034    5.1010 H       1  LIG1        0.0660
     54 H           9.7994    5.2201    1.6758 H       1  LIG1        0.0660
     55 H           8.7293    4.2697    0.6424 H       1  LIG1        0.0660
     56 H           9.7992    3.4635    1.8587 H       1  LIG1        0.0660
     57 H           6.8068    5.4185    6.2062 H       1  LIG1        0.0660
     58 H           7.9106    5.6538    4.8494 H       1  LIG1        0.0660
     59 H           7.6290    4.0081    5.5229 H       1  LIG1        0.0660
     60 H          -1.1549   -1.8727    4.4845 H       1  LIG1        0.0660
     61 H           0.2771   -1.0852    5.1528 H       1  LIG1        0.0660
     62 H           0.1670   -2.8870    5.0754 H       1  LIG1        0.0660
@<TRIPOS>BOND
     1     1    19    1
     2     1    28    1
     3     2    28    1
     4     2    21    1
     5     3    22    1
     6     3    34    1
     7     4    23    1
     8     4    35    1
     9     5    25    1
    10     5    36    1
    11     6    15    2
    12     7    27   ar
    13     8    27   ar
    14     9    33    1
    15     9    37    1
    16    10    11    1
    17    10    12    1
    18    11    13    2
    19    11    15    1
    20    12    16   ar
    21    12    17   ar
    22    13    14    1
    23    13    27    1
    24    14    20   ar
    25    14    18   ar
    26    15    24    1
    27    16    23   ar
    28    17    22   ar
    29    18    19   ar
    30    19    21   ar
    31    20    26   ar
    32    21    26   ar
    33    22    25   ar
    34    23    25   ar
    35    24    29   ar
    36    24    30   ar
    37    29    31   ar
    38    30    32   ar
    39    31    33   ar
    40    32    33   ar
    41    10    38    1
    42    10    39    1
    43    16    40    1
    44    17    41    1
    45    18    42    1
    46    20    43    1
    47    26    44    1
    48    28    45    1
    49    28    46    1
    50    29    47    1
    51    30    48    1
    52    31    49    1
    53    32    50    1
    54    34    51    1
    55    34    52    1
    56    34    53    1
    57    35    54    1
    58    35    55    1
    59    35    56    1
    60    36    57    1
    61    36    58    1
    62    36    59    1
    63    37    60    1
    64    37    61    1
    65    37    62    1
@<TRIPOS>MOLECULE
9871593
 62 65 0 0 0
SMALL
GASTEIGER

@<TRIPOS>ATOM
      1 O          11.9820    1.2909    1.6755 O.3     1  LIG1       -0.4526
      2 O          12.5265    1.4694   -0.6677 O.3     1  LIG1       -0.4526
      3 O           4.2563    4.1846    2.5121 O.3     1  LIG1       -0.4913
      4 O           5.3116    0.8330    5.7303 O.3     1  LIG1       -0.4913
      5 O           4.2324    3.4270    4.9667 O.3     1  LIG1       -0.4885
      6 O           4.7865   -2.3164    1.2872 O.2     1  LIG1       -0.2870
      7 O           8.0103   -3.9510   -0.0260 O.co2   1  LIG1       -0.5446
      8 O           9.6887   -3.4967    1.4659 O.co2   1  LIG1       -0.5446
      9 O           7.4242   -6.2440    5.5227 O.3     1  LIG1       -0.4951
     10 C           6.3947    0.0170    0.9044 C.3     1  LIG1        0.0021
     11 C           6.9645   -1.3639    1.1590 C.2     1  LIG1        0.0135
     12 C           5.8674    0.8536    2.0616 C.ar    1  LIG1       -0.0358
     13 C           8.2155   -1.7401    0.8137 C.2     1  LIG1        0.0117
     14 C           9.2842   -0.8332    0.3720 C.ar    1  LIG1       -0.0121
     15 C           5.9633   -2.3798    1.6451 C.2     1  LIG1        0.1901
     16 C           5.8741    0.4520    3.4000 C.ar    1  LIG1       -0.0126
     17 C           5.3215    2.1111    1.7566 C.ar    1  LIG1       -0.0126
     18 C          10.0424   -0.1445    1.3300 C.ar    1  LIG1       -0.0084
     19 C          11.1086    0.6068    0.8870 C.ar    1  LIG1        0.1668
     20 C           9.5947   -0.7106   -0.9998 C.ar    1  LIG1       -0.0503
     21 C          11.4177    0.7095   -0.4503 C.ar    1  LIG1        0.1663
     22 C           4.7917    2.9385    2.7538 C.ar    1  LIG1        0.1654
     23 C           5.3191    1.2463    4.4211 C.ar    1  LIG1        0.1654
     24 C           6.3480   -3.3801    2.6884 C.ar    1  LIG1        0.0222
     25 C           4.7880    2.5114    4.1018 C.ar    1  LIG1        0.2035
     26 C          10.6725    0.0750   -1.4209 C.ar    1  LIG1       -0.0156
     27 C           8.6936   -3.2161    0.7417 C.2     1  LIG1        0.0726
     28 C          12.9335    1.7347    0.6903 C.3     1  LIG1        0.2332
     29 C           5.6457   -4.5904    2.7390 C.ar    1  LIG1       -0.0475
     30 C           7.3561   -3.1366    3.6323 C.ar    1  LIG1       -0.0475
     31 C           5.9830   -5.5658    3.6838 C.ar    1  LIG1       -0.0193
     32 C           7.6875   -4.1080    4.5797 C.ar    1  LIG1       -0.0193
     33 C           7.0228   -5.3310    4.5843 C.ar    1  LIG1        0.1201
     34 C           4.1049    4.5846    1.1585 C.3     1  LIG1        0.0790
     35 C           5.4159   -0.5668    5.9740 C.3     1  LIG1        0.0790
     36 C           4.1076    3.1114    6.3412 C.3     1  LIG1        0.0791
     37 C           7.6697   -7.5300    4.9551 C.3     1  LIG1        0.0788
     38 H           5.5677   -0.0987    0.1887 H       1  LIG1        0.0363
     39 H           7.1344    0.6403    0.3870 H       1  LIG1        0.0363
     40 H           6.3232   -0.4983    3.6491 H       1  LIG1        0.0658
     41 H           5.3271    2.4238    0.7169 H       1  LIG1        0.0658
     42 H           9.8388   -0.2519    2.3890 H       1  LIG1        0.0661
     43 H           9.0133   -1.2683   -1.7324 H       1  LIG1        0.0625
     44 H          10.9336    0.1491   -2.4691 H       1  LIG1        0.0655
     45 H          13.8906    1.2307    0.8749 H       1  LIG1        0.1166
     46 H          13.0807    2.8139    0.8069 H       1  LIG1        0.1166
     47 H           4.8595   -4.7878    2.0141 H       1  LIG1        0.0626
     48 H           7.9367   -2.2189    3.6133 H       1  LIG1        0.0626
     49 H           5.4358   -6.5016    3.6926 H       1  LIG1        0.0654
     50 H           8.5042   -3.9270    5.2725 H       1  LIG1        0.0654
     51 H           3.6060    5.5587    1.1523 H       1  LIG1        0.0660
     52 H           3.4701    3.8847    0.6051 H       1  LIG1        0.0660
     53 H           5.0781    4.7092    0.6728 H       1  LIG1        0.0660
     54 H           5.1362   -0.7432    7.0172 H       1  LIG1        0.0660
     55 H           6.4496   -0.9030    5.8485 H       1  LIG1        0.0660
     56 H           4.7284   -1.1432    5.3453 H       1  LIG1        0.0660
     57 H           3.6210    3.9618    6.8300 H       1  LIG1        0.0660
     58 H           5.0873    2.9912    6.8135 H       1  LIG1        0.0660
     59 H           3.4609    2.2422    6.4956 H       1  LIG1        0.0660
     60 H           8.3279   -8.0757    5.6383 H       1  LIG1        0.0660
     61 H           8.1750   -7.4670    3.9841 H       1  LIG1        0.0660
     62 H           6.7350   -8.0927    4.8693 H       1  LIG1        0.0660
@<TRIPOS>BOND
     1     1    19    1
     2     1    28    1
     3     2    28    1
     4     2    21    1
     5     3    22    1
     6     3    34    1
     7     4    23    1
     8     4    35    1
     9     5    25    1
    10     5    36    1
    11     6    15    2
    12     7    27   ar
    13     8    27   ar
    14     9    33    1
    15     9    37    1
    16    10    11    1
    17    10    12    1
    18    11    13    2
    19    11    15    1
    20    12    16   ar
    21    12    17   ar
    22    13    14    1
    23    13    27    1
    24    14    20   ar
    25    14    18   ar
    26    15    24    1
    27    16    23   ar
    28    17    22   ar
    29    18    19   ar
    30    19    21   ar
    31    20    26   ar
    32    21    26   ar
    33    22    25   ar
    34    23    25   ar
    35    24    29   ar
    36    24    30   ar
    37    29    31   ar
    38    30    32   ar
    39    31    33   ar
    40    32    33   ar
    41    10    38    1
    42    10    39    1
    43    16    40    1
    44    17    41    1
    45    18    42    1
    46    20    43    1
    47    26    44    1
    48    28    45    1
    49    28    46    1
    50    29    47    1
    51    30    48    1
    52    31    49    1
    53    32    50    1
    54    34    51    1
    55    34    52    1
    56    34    53    1
    57    35    54    1
    58    35    55    1
    59    35    56    1
    60    36    57    1
    61    36    58    1
    62    36    59    1
    63    37    60    1
    64    37    61    1
    65    37    62    1
@<TRIPOS>MOLECULE
9871593
 62 65 0 0 0
SMALL
GASTEIGER

@<TRIPOS>ATOM
      1 O          10.2866    0.8161   -2.7749 O.3     1  LIG1       -0.4526
      2 O          11.7288    2.0215   -1.2593 O.3     1  LIG1       -0.4526
      3 O           7.4653    2.3123    5.3663 O.3     1  LIG1       -0.4913
      4 O           3.4602    3.7552    3.0891 O.3     1  LIG1       -0.4913
      5 O           5.2284    4.0462    5.1821 O.3     1  LIG1       -0.4885
      6 O           6.7056   -2.8185    3.1076 O.2     1  LIG1       -0.2870
      7 O           7.7651   -3.8211    0.3068 O.co2   1  LIG1       -0.5446
      8 O           9.6562   -3.2771    1.4922 O.co2   1  LIG1       -0.5446
      9 O           0.6148   -1.2825    3.3964 O.3     1  LIG1       -0.4951
     10 C           6.3341    0.2364    1.1019 C.3     1  LIG1        0.0021
     11 C           6.8730   -1.1409    1.4067 C.2     1  LIG1        0.0135
     12 C           5.9881    1.1498    2.2562 C.ar    1  LIG1       -0.0358
     13 C           8.0724   -1.5696    0.9477 C.2     1  LIG1        0.0117
     14 C           9.0751   -0.6719    0.3543 C.ar    1  LIG1       -0.0121
     15 C           6.1210   -2.0546    2.3414 C.2     1  LIG1        0.1901
     16 C           4.8500    1.9706    2.1557 C.ar    1  LIG1       -0.0126
     17 C           6.8317    1.2959    3.3606 C.ar    1  LIG1       -0.0126
     18 C           9.1559   -0.4590   -1.0265 C.ar    1  LIG1       -0.0084
     19 C          10.0789    0.4640   -1.4756 C.ar    1  LIG1        0.1668
     20 C           9.9334    0.0341    1.2315 C.ar    1  LIG1       -0.0503
     21 C          10.9025    1.1552   -0.6128 C.ar    1  LIG1        0.1663
     22 C           6.5442    2.2367    4.3521 C.ar    1  LIG1        0.1654
     23 C           4.5552    2.9289    3.1309 C.ar    1  LIG1        0.1654
     24 C           4.6647   -1.8827    2.5699 C.ar    1  LIG1        0.0222
     25 C           5.4350    3.0878    4.2170 C.ar    1  LIG1        0.2035
     26 C          10.8580    0.9606    0.7482 C.ar    1  LIG1       -0.0156
     27 C           8.5328   -3.0493    0.9610 C.2     1  LIG1        0.0726
     28 C          11.3544    1.7725   -2.6276 C.3     1  LIG1        0.2332
     29 C           3.7342   -1.6742    1.5528 C.ar    1  LIG1       -0.0475
     30 C           4.2223   -1.9543    3.8996 C.ar    1  LIG1       -0.0475
     31 C           2.3857   -1.4725    1.8792 C.ar    1  LIG1       -0.0193
     32 C           2.8766   -1.7686    4.2202 C.ar    1  LIG1       -0.0193
     33 C           1.9522   -1.5084    3.2108 C.ar    1  LIG1        0.1201
     34 C           6.8804    2.2926    6.6651 C.3     1  LIG1        0.0790
     35 C           2.4772    3.4848    2.0982 C.3     1  LIG1        0.0790
     36 C           5.2477    5.3679    4.6445 C.3     1  LIG1        0.0791
     37 C           0.1471   -1.3244    4.7408 C.3     1  LIG1        0.0788
     38 H           5.4548    0.1115    0.4586 H       1  LIG1        0.0363
     39 H           7.0240    0.8128    0.4747 H       1  LIG1        0.0363
     40 H           4.2180    1.8545    1.2806 H       1  LIG1        0.0658
     41 H           7.7252    0.6815    3.4547 H       1  LIG1        0.0658
     42 H           8.5171   -1.0009   -1.7141 H       1  LIG1        0.0661
     43 H           9.8819   -0.1681    2.3005 H       1  LIG1        0.0625
     44 H          11.5160    1.4952    1.4222 H       1  LIG1        0.0655
     45 H          11.0380    2.7203   -3.0781 H       1  LIG1        0.1166
     46 H          12.2338    1.4051   -3.1691 H       1  LIG1        0.1166
     47 H           4.0419   -1.6808    0.5112 H       1  LIG1        0.0626
     48 H           4.9398   -2.1539    4.6946 H       1  LIG1        0.0626
     49 H           1.6641   -1.2946    1.0859 H       1  LIG1        0.0654
     50 H           2.5955   -1.8339    5.2654 H       1  LIG1        0.0654
     51 H           7.5736    1.7722    7.3332 H       1  LIG1        0.0660
     52 H           5.9238    1.7584    6.6977 H       1  LIG1        0.0660
     53 H           6.7668    3.3146    7.0384 H       1  LIG1        0.0660
     54 H           1.6412    4.1712    2.2626 H       1  LIG1        0.0660
     55 H           2.0920    2.4635    2.1867 H       1  LIG1        0.0660
     56 H           2.8687    3.6778    1.0938 H       1  LIG1        0.0660
     57 H           5.7231    6.0214    5.3825 H       1  LIG1        0.0660
     58 H           4.2232    5.7240    4.4991 H       1  LIG1        0.0660
     59 H           5.8157    5.4501    3.7101 H       1  LIG1        0.0660
     60 H          -0.9237   -1.0991    4.7323 H       1  LIG1        0.0660
     61 H           0.6391   -0.5650    5.3586 H       1  LIG1        0.0660
     62 H           0.2730   -2.3244    5.1699 H       1  LIG1        0.0660
@<TRIPOS>BOND
     1     1    19    1
     2     1    28    1
     3     2    28    1
     4     2    21    1
     5     3    22    1
     6     3    34    1
     7     4    23    1
     8     4    35    1
     9     5    25    1
    10     5    36    1
    11     6    15    2
    12     7    27   ar
    13     8    27   ar
    14     9    33    1
    15     9    37    1
    16    10    11    1
    17    10    12    1
    18    11    13    2
    19    11    15    1
    20    12    16   ar
    21    12    17   ar
    22    13    14    1
    23    13    27    1
    24    14    20   ar
    25    14    18   ar
    26    15    24    1
    27    16    23   ar
    28    17    22   ar
    29    18    19   ar
    30    19    21   ar
    31    20    26   ar
    32    21    26   ar
    33    22    25   ar
    34    23    25   ar
    35    24    29   ar
    36    24    30   ar
    37    29    31   ar
    38    30    32   ar
    39    31    33   ar
    40    32    33   ar
    41    10    38    1
    42    10    39    1
    43    16    40    1
    44    17    41    1
    45    18    42    1
    46    20    43    1
    47    26    44    1
    48    28    45    1
    49    28    46    1
    50    29    47    1
    51    30    48    1
    52    31    49    1
    53    32    50    1
    54    34    51    1
    55    34    52    1
    56    34    53    1
    57    35    54    1
    58    35    55    1
    59    35    56    1
    60    36    57    1
    61    36    58    1
    62    36    59    1
    63    37    60    1
    64    37    61    1
    65    37    62    1
@<TRIPOS>MOLECULE
9871593
 62 65 0 0 0
SMALL
GASTEIGER

@<TRIPOS>ATOM
      1 O          11.8299    1.3082    1.6365 O.3     1  LIG1       -0.4526
      2 O          12.3662    1.2717   -0.7141 O.3     1  LIG1       -0.4526
      3 O           5.2188    1.8572    5.5046 O.3     1  LIG1       -0.4913
      4 O           6.1388    4.9456    1.8696 O.3     1  LIG1       -0.4913
      5 O           5.3357    4.4766    4.6054 O.3     1  LIG1       -0.4885
      6 O           6.5265   -3.0177    3.0938 O.2     1  LIG1       -0.2870
      7 O           7.6734   -3.9393    0.3283 O.co2   1  LIG1       -0.5446
      8 O           9.4980   -3.5192    1.6609 O.co2   1  LIG1       -0.5446
      9 O           0.4759   -1.3744    3.3346 O.3     1  LIG1       -0.4951
     10 C           6.2889    0.0870    1.0811 C.3     1  LIG1        0.0021
     11 C           6.8024   -1.2730    1.4805 C.2     1  LIG1        0.0135
     12 C           6.2188    1.2250    2.0785 C.ar    1  LIG1       -0.0358
     13 C           8.0154   -1.7250    1.0816 C.2     1  LIG1        0.0117
     14 C           9.0925   -0.8849    0.5313 C.ar    1  LIG1       -0.0121
     15 C           5.9856   -2.2118    2.3347 C.2     1  LIG1        0.1901
     16 C           6.3294    2.5376    1.5803 C.ar    1  LIG1       -0.0126
     17 C           5.8819    1.0669    3.4182 C.ar    1  LIG1       -0.0126
     18 C           9.8673   -0.1234    1.4220 C.ar    1  LIG1       -0.0084
     19 C          10.9431    0.5703    0.9140 C.ar    1  LIG1        0.1668
     20 C           9.4023   -0.8925   -0.8445 C.ar    1  LIG1       -0.0503
     21 C          11.2474    0.5495   -0.4275 C.ar    1  LIG1        0.1663
     22 C           5.6335    2.1796    4.2318 C.ar    1  LIG1        0.1654
     23 C           6.0803    3.6709    2.3742 C.ar    1  LIG1        0.1654
     24 C           4.5223   -2.0409    2.5266 C.ar    1  LIG1        0.0222
     25 C           5.7084    3.4939    3.7215 C.ar    1  LIG1        0.2035
     26 C          10.4891   -0.1586   -1.3348 C.ar    1  LIG1       -0.0156
     27 C           8.4191   -3.2277    1.0725 C.2     1  LIG1        0.0726
     28 C          12.7933    1.6296    0.6168 C.3     1  LIG1        0.2332
     29 C           3.6115   -1.7690    1.5086 C.ar    1  LIG1       -0.0475
     30 C           4.0513   -2.1781    3.8436 C.ar    1  LIG1       -0.0475
     31 C           2.2623   -1.5520    1.8262 C.ar    1  LIG1       -0.0193
     32 C           2.7080   -1.9724    4.1566 C.ar    1  LIG1       -0.0193
     33 C           1.8082   -1.6331    3.1502 C.ar    1  LIG1        0.1201
     34 C           5.9157    2.5523    6.5329 C.3     1  LIG1        0.0790
     35 C           6.4992    5.1198    0.5055 C.3     1  LIG1        0.0790
     36 C           5.6050    5.8337    4.2979 C.3     1  LIG1        0.0791
     37 C           0.0282   -1.3204    4.6864 C.3     1  LIG1        0.0788
     38 H           5.2911   -0.0058    0.6423 H       1  LIG1        0.0363
     39 H           6.8859    0.4411    0.2293 H       1  LIG1        0.0363
     40 H           6.5820    2.6454    0.5290 H       1  LIG1        0.0658
     41 H           5.7868    0.0817    3.8608 H       1  LIG1        0.0658
     42 H           9.6663   -0.1395    2.4879 H       1  LIG1        0.0661
     43 H           8.8160   -1.5127   -1.5202 H       1  LIG1        0.0625
     44 H          10.7502   -0.1861   -2.3858 H       1  LIG1        0.0655
     45 H          13.7319    1.1049    0.8389 H       1  LIG1        0.1166
     46 H          12.9840    2.7082    0.6439 H       1  LIG1        0.1166
     47 H           3.9307   -1.7317    0.4713 H       1  LIG1        0.0626
     48 H           4.7487   -2.4325    4.6413 H       1  LIG1        0.0626
     49 H           1.5561   -1.3130    1.0354 H       1  LIG1        0.0654
     50 H           2.4113   -2.0818    5.1934 H       1  LIG1        0.0654
     51 H           5.9875    1.8816    7.3946 H       1  LIG1        0.0660
     52 H           5.3421    3.4288    6.8486 H       1  LIG1        0.0660
     53 H           6.9340    2.8357    6.2442 H       1  LIG1        0.0660
     54 H           6.5058    6.1942    0.2977 H       1  LIG1        0.0660
     55 H           5.7597    4.6614   -0.1600 H       1  LIG1        0.0660
     56 H           7.5064    4.7388    0.3081 H       1  LIG1        0.0660
     57 H           5.4022    6.4204    5.1995 H       1  LIG1        0.0660
     58 H           4.9291    6.2028    3.5206 H       1  LIG1        0.0660
     59 H           6.6577    5.9914    4.0427 H       1  LIG1        0.0660
     60 H          -1.0235   -1.0191    4.6813 H       1  LIG1        0.0660
     61 H           0.5829   -0.5721    5.2637 H       1  LIG1        0.0660
     62 H           0.0889   -2.3067    5.1588 H       1  LIG1        0.0660
@<TRIPOS>BOND
     1     1    19    1
     2     1    28    1
     3     2    28    1
     4     2    21    1
     5     3    22    1
     6     3    34    1
     7     4    23    1
     8     4    35    1
     9     5    25    1
    10     5    36    1
    11     6    15    2
    12     7    27   ar
    13     8    27   ar
    14     9    33    1
    15     9    37    1
    16    10    11    1
    17    10    12    1
    18    11    13    2
    19    11    15    1
    20    12    16   ar
    21    12    17   ar
    22    13    14    1
    23    13    27    1
    24    14    20   ar
    25    14    18   ar
    26    15    24    1
    27    16    23   ar
    28    17    22   ar
    29    18    19   ar
    30    19    21   ar
    31    20    26   ar
    32    21    26   ar
    33    22    25   ar
    34    23    25   ar
    35    24    29   ar
    36    24    30   ar
    37    29    31   ar
    38    30    32   ar
    39    31    33   ar
    40    32    33   ar
    41    10    38    1
    42    10    39    1
    43    16    40    1
    44    17    41    1
    45    18    42    1
    46    20    43    1
    47    26    44    1
    48    28    45    1
    49    28    46    1
    50    29    47    1
    51    30    48    1
    52    31    49    1
    53    32    50    1
    54    34    51    1
    55    34    52    1
    56    34    53    1
    57    35    54    1
    58    35    55    1
    59    35    56    1
    60    36    57    1
    61    36    58    1
    62    36    59    1
    63    37    60    1
    64    37    61    1
    65    37    62    1
@<TRIPOS>MOLECULE
9871593
 62 65 0 0 0
SMALL
GASTEIGER

@<TRIPOS>ATOM
      1 O          10.2760    0.8042   -2.7940 O.3     1  LIG1       -0.4526
      2 O          11.7275    2.0077   -1.2858 O.3     1  LIG1       -0.4526
      3 O           7.4635    2.3474    5.3763 O.3     1  LIG1       -0.4913
      4 O           3.4505    3.7668    3.1014 O.3     1  LIG1       -0.4913
      5 O           5.2204    4.0679    5.1930 O.3     1  LIG1       -0.4885
      6 O           6.7789   -2.6610    3.2319 O.2     1  LIG1       -0.2870
      7 O           7.6628   -3.8227    0.4089 O.co2   1  LIG1       -0.5446
      8 O           9.6512   -3.2856    1.4243 O.co2   1  LIG1       -0.5446
      9 O           0.5793   -1.5624    3.3000 O.3     1  LIG1       -0.4951
     10 C           6.3395    0.2626    1.1140 C.3     1  LIG1        0.0021
     11 C           6.8765   -1.1134    1.4187 C.2     1  LIG1        0.0135
     12 C           5.9898    1.1735    2.2680 C.ar    1  LIG1       -0.0358
     13 C           8.0642   -1.5593    0.9459 C.2     1  LIG1        0.0117
     14 C           9.0692   -0.6723    0.3436 C.ar    1  LIG1       -0.0121
     15 C           6.1551   -1.9991    2.4001 C.2     1  LIG1        0.1901
     16 C           4.8471    1.9873    2.1688 C.ar    1  LIG1       -0.0126
     17 C           6.8349    1.3244    3.3710 C.ar    1  LIG1       -0.0126
     18 C           9.1463   -0.4627   -1.0391 C.ar    1  LIG1       -0.0084
     19 C          10.0716    0.4551   -1.4921 C.ar    1  LIG1        0.1668
     20 C           9.9352    0.0332    1.2141 C.ar    1  LIG1       -0.0503
     21 C          10.9009    1.1457   -0.6349 C.ar    1  LIG1        0.1663
     22 C           6.5441    2.2639    4.3620 C.ar    1  LIG1        0.1654
     23 C           4.5490    2.9459    3.1431 C.ar    1  LIG1        0.1654
     24 C           4.6833   -1.9103    2.5842 C.ar    1  LIG1        0.0222
     25 C           5.4300    3.1096    4.2277 C.ar    1  LIG1        0.2035
     26 C          10.8617    0.9545    0.7288 C.ar    1  LIG1       -0.0156
     27 C           8.4961   -3.0464    0.9728 C.2     1  LIG1        0.0726
     28 C          11.3467    1.7579   -2.6519 C.3     1  LIG1        0.2332
     29 C           3.7726   -1.7158    1.5468 C.ar    1  LIG1       -0.0475
     30 C           4.2027   -2.0421    3.8973 C.ar    1  LIG1       -0.0475
     31 C           2.4052   -1.5938    1.8354 C.ar    1  LIG1       -0.0193
     32 C           2.8394   -1.9390    4.1808 C.ar    1  LIG1       -0.0193
     33 C           1.9329   -1.7020    3.1498 C.ar    1  LIG1        0.1201
     34 C           6.8758    2.2978    6.6725 C.3     1  LIG1        0.0790
     35 C           2.4694    3.4946    2.1106 C.3     1  LIG1        0.0790
     36 C           5.2388    5.3883    4.6535 C.3     1  LIG1        0.0791
     37 C           0.0585   -1.8118    4.6020 C.3     1  LIG1        0.0788
     38 H           5.4612    0.1381    0.4697 H       1  LIG1        0.0363
     39 H           7.0321    0.8394    0.4891 H       1  LIG1        0.0363
     40 H           4.2139    1.8668    1.2958 H       1  LIG1        0.0658
     41 H           7.7312    0.7142    3.4641 H       1  LIG1        0.0658
     42 H           8.5017   -1.0025   -1.7230 H       1  LIG1        0.0661
     43 H           9.8857   -0.1658    2.2849 H       1  LIG1        0.0625
     44 H          11.5226    1.4825    1.3956 H       1  LIG1        0.0655
     45 H          11.0312    2.7057   -3.1034 H       1  LIG1        0.1166
     46 H          12.2234    1.3873   -3.1972 H       1  LIG1        0.1166
     47 H           4.1087   -1.6766    0.5141 H       1  LIG1        0.0626
     48 H           4.9029   -2.2247    4.7108 H       1  LIG1        0.0626
     49 H           1.7000   -1.4277    1.0269 H       1  LIG1        0.0654
     50 H           2.5318   -2.0454    5.2146 H       1  LIG1        0.0654
     51 H           7.5753    1.7784    7.3351 H       1  LIG1        0.0660
     52 H           5.9273    1.7485    6.6948 H       1  LIG1        0.0660
     53 H           6.7443    3.3125    7.0612 H       1  LIG1        0.0660
     54 H           1.6309    4.1777    2.2744 H       1  LIG1        0.0660
     55 H           2.0874    2.4715    2.1980 H       1  LIG1        0.0660
     56 H           2.8607    3.6889    1.1056 H       1  LIG1        0.0660
     57 H           5.7123    6.0436    5.3915 H       1  LIG1        0.0660
     58 H           4.2142    5.7429    4.5056 H       1  LIG1        0.0660
     59 H           5.8084    5.4702    3.7201 H       1  LIG1        0.0660
     60 H          -1.0277   -1.6938    4.5580 H       1  LIG1        0.0660
     61 H           0.4401   -1.0880    5.3288 H       1  LIG1        0.0660
     62 H           0.2688   -2.8401    4.9200 H       1  LIG1        0.0660
@<TRIPOS>BOND
     1     1    19    1
     2     1    28    1
     3     2    28    1
     4     2    21    1
     5     3    22    1
     6     3    34    1
     7     4    23    1
     8     4    35    1
     9     5    25    1
    10     5    36    1
    11     6    15    2
    12     7    27   ar
    13     8    27   ar
    14     9    33    1
    15     9    37    1
    16    10    11    1
    17    10    12    1
    18    11    13    2
    19    11    15    1
    20    12    16   ar
    21    12    17   ar
    22    13    14    1
    23    13    27    1
    24    14    20   ar
    25    14    18   ar
    26    15    24    1
    27    16    23   ar
    28    17    22   ar
    29    18    19   ar
    30    19    21   ar
    31    20    26   ar
    32    21    26   ar
    33    22    25   ar
    34    23    25   ar
    35    24    29   ar
    36    24    30   ar
    37    29    31   ar
    38    30    32   ar
    39    31    33   ar
    40    32    33   ar
    41    10    38    1
    42    10    39    1
    43    16    40    1
    44    17    41    1
    45    18    42    1
    46    20    43    1
    47    26    44    1
    48    28    45    1
    49    28    46    1
    50    29    47    1
    51    30    48    1
    52    31    49    1
    53    32    50    1
    54    34    51    1
    55    34    52    1
    56    34    53    1
    57    35    54    1
    58    35    55    1
    59    35    56    1
    60    36    57    1
    61    36    58    1
    62    36    59    1
    63    37    60    1
    64    37    61    1
    65    37    62    1
@<TRIPOS>MOLECULE
9871593
 62 65 0 0 0
SMALL
GASTEIGER

@<TRIPOS>ATOM
      1 O          12.0532    0.8130    1.6120 O.3     1  LIG1       -0.4526
      2 O          12.5094    0.8197   -0.7589 O.3     1  LIG1       -0.4526
      3 O           8.9199    3.7430   -1.2872 O.3     1  LIG1       -0.4913
      4 O           9.0588    3.5175    3.4735 O.3     1  LIG1       -0.4913
      5 O           9.8301    4.6807    1.2803 O.3     1  LIG1       -0.4885
      6 O           6.3051   -2.0677    3.5060 O.2     1  LIG1       -0.2870
      7 O           9.1568   -3.6525    1.8747 O.co2   1  LIG1       -0.5446
      8 O           7.1506   -3.9656    0.8093 O.co2   1  LIG1       -0.5446
      9 O           0.2789   -2.2978    1.7251 O.3     1  LIG1       -0.4951
     10 C           6.2613    0.2440    1.0114 C.3     1  LIG1        0.0021
     11 C           6.7488   -1.1355    1.3775 C.2     1  LIG1        0.0135
     12 C           7.2278    1.4026    1.0397 C.ar    1  LIG1       -0.0358
     13 C           7.9189   -1.7495    1.0924 C.2     1  LIG1        0.0117
     14 C           9.1121   -1.1131    0.5273 C.ar    1  LIG1       -0.0121
     15 C           5.8748   -1.8532    2.3704 C.2     1  LIG1        0.1901
     16 C           7.7002    1.8904    2.2604 C.ar    1  LIG1       -0.0126
     17 C           7.6336    2.0293   -0.1468 C.ar    1  LIG1       -0.0126
     18 C          10.0034   -0.4851    1.4168 C.ar    1  LIG1       -0.0084
     19 C          11.1126    0.1410    0.8971 C.ar    1  LIG1        0.1668
     20 C           9.3912   -1.1271   -0.8511 C.ar    1  LIG1       -0.0503
     21 C          11.3720    0.1398   -0.4500 C.ar    1  LIG1        0.1663
     22 C           8.5098    3.1236   -0.1328 C.ar    1  LIG1        0.1654
     23 C           8.5717    2.9833    2.3016 C.ar    1  LIG1        0.1654
     24 C           4.4267   -2.0708    2.0962 C.ar    1  LIG1        0.0222
     25 C           8.9613    3.6259    1.1041 C.ar    1  LIG1        0.2035
     26 C          10.5394   -0.4996   -1.3514 C.ar    1  LIG1       -0.0156
     27 C           8.0911   -3.2755    1.3149 C.2     1  LIG1        0.0726
     28 C          12.9201    1.2570    0.5554 C.3     1  LIG1        0.2332
     29 C           3.5941   -2.3245    3.1984 C.ar    1  LIG1       -0.0475
     30 C           3.8580   -1.9787    0.8224 C.ar    1  LIG1       -0.0475
     31 C           2.2114   -2.4154    3.0411 C.ar    1  LIG1       -0.0193
     32 C           2.4662   -2.0498    0.6679 C.ar    1  LIG1       -0.0193
     33 C           1.6450   -2.2337    1.7834 C.ar    1  LIG1        0.1201
     34 C           8.9487    2.9485   -2.4665 C.3     1  LIG1        0.0790
     35 C           9.0036    2.6759    4.6200 C.3     1  LIG1        0.0790
     36 C           9.8572    5.6910    0.2860 C.3     1  LIG1        0.0791
     37 C          -0.3004   -1.2663    0.9320 C.3     1  LIG1        0.0788
     38 H           5.4283    0.5360    1.6669 H       1  LIG1        0.0363
     39 H           5.8144    0.1802    0.0099 H       1  LIG1        0.0363
     40 H           7.3742    1.3902    3.1686 H       1  LIG1        0.0658
     41 H           7.2501    1.6381   -1.0855 H       1  LIG1        0.0658
     42 H           9.8230   -0.5007    2.4857 H       1  LIG1        0.0661
     43 H           8.7191   -1.6487   -1.5271 H       1  LIG1        0.0625
     44 H          10.7708   -0.5130   -2.4078 H       1  LIG1        0.0655
     45 H          13.9302    0.8762    0.7489 H       1  LIG1        0.1166
     46 H          12.9540    2.3532    0.5653 H       1  LIG1        0.1166
     47 H           4.0264   -2.4401    4.1910 H       1  LIG1        0.0626
     48 H           4.4870   -1.8651   -0.0561 H       1  LIG1        0.0626
     49 H           1.5818   -2.6040    3.9049 H       1  LIG1        0.0654
     50 H           2.0448   -1.9807   -0.3288 H       1  LIG1        0.0654
     51 H           9.5316    3.4909   -3.2175 H       1  LIG1        0.0660
     52 H           7.9406    2.8106   -2.8686 H       1  LIG1        0.0660
     53 H           9.4414    1.9877   -2.2974 H       1  LIG1        0.0660
     54 H           9.5940    3.1504    5.4096 H       1  LIG1        0.0660
     55 H           9.4413    1.6922    4.4221 H       1  LIG1        0.0660
     56 H           7.9758    2.5871    4.9863 H       1  LIG1        0.0660
     57 H          10.3012    6.5848    0.7364 H       1  LIG1        0.0660
     58 H           8.8540    5.9659   -0.0566 H       1  LIG1        0.0660
     59 H          10.5062    5.3981   -0.5448 H       1  LIG1        0.0660
     60 H          -1.3554   -1.1843    1.2118 H       1  LIG1        0.0660
     61 H          -0.2529   -1.5224   -0.1304 H       1  LIG1        0.0660
     62 H           0.1689   -0.2931    1.1197 H       1  LIG1        0.0660
@<TRIPOS>BOND
     1     1    19    1
     2     1    28    1
     3     2    28    1
     4     2    21    1
     5     3    22    1
     6     3    34    1
     7     4    23    1
     8     4    35    1
     9     5    25    1
    10     5    36    1
    11     6    15    2
    12     7    27   ar
    13     8    27   ar
    14     9    33    1
    15     9    37    1
    16    10    11    1
    17    10    12    1
    18    11    13    2
    19    11    15    1
    20    12    16   ar
    21    12    17   ar
    22    13    14    1
    23    13    27    1
    24    14    20   ar
    25    14    18   ar
    26    15    24    1
    27    16    23   ar
    28    17    22   ar
    29    18    19   ar
    30    19    21   ar
    31    20    26   ar
    32    21    26   ar
    33    22    25   ar
    34    23    25   ar
    35    24    29   ar
    36    24    30   ar
    37    29    31   ar
    38    30    32   ar
    39    31    33   ar
    40    32    33   ar
    41    10    38    1
    42    10    39    1
    43    16    40    1
    44    17    41    1
    45    18    42    1
    46    20    43    1
    47    26    44    1
    48    28    45    1
    49    28    46    1
    50    29    47    1
    51    30    48    1
    52    31    49    1
    53    32    50    1
    54    34    51    1
    55    34    52    1
    56    34    53    1
    57    35    54    1
    58    35    55    1
    59    35    56    1
    60    36    57    1
    61    36    58    1
    62    36    59    1
    63    37    60    1
    64    37    61    1
    65    37    62    1
@<TRIPOS>MOLECULE
9871593
 62 65 0 0 0
SMALL
GASTEIGER

@<TRIPOS>ATOM
      1 O          10.2390    0.8418   -2.8233 O.3     1  LIG1       -0.4526
      2 O          11.7309    1.9708   -1.2970 O.3     1  LIG1       -0.4526
      3 O           7.3075    1.8746    5.6283 O.3     1  LIG1       -0.4913
      4 O           3.8216    3.9740    3.1433 O.3     1  LIG1       -0.4913
      5 O           5.2477    3.8557    5.3230 O.3     1  LIG1       -0.4885
      6 O           6.7399   -2.6043    3.2057 O.2     1  LIG1       -0.2870
      7 O           9.6089   -3.2769    1.4896 O.co2   1  LIG1       -0.5446
      8 O           7.6760   -3.8778    0.4037 O.co2   1  LIG1       -0.5446
      9 O           0.5630   -1.6282    3.3676 O.3     1  LIG1       -0.4951
     10 C           6.3034    0.2424    1.0411 C.3     1  LIG1        0.0021
     11 C           6.8302   -1.1460    1.3226 C.2     1  LIG1        0.0135
     12 C           6.0313    1.1379    2.2291 C.ar    1  LIG1       -0.0358
     13 C           8.0254   -1.5933    0.8714 C.2     1  LIG1        0.0117
     14 C           9.0413   -0.7084    0.2821 C.ar    1  LIG1       -0.0121
     15 C           6.1125   -2.0066    2.3297 C.2     1  LIG1        0.1901
     16 C           5.0189    2.1017    2.1390 C.ar    1  LIG1       -0.0126
     17 C           6.8200    1.0906    3.3843 C.ar    1  LIG1       -0.0126
     18 C           9.1059   -0.4578   -1.0935 C.ar    1  LIG1       -0.0084
     19 C          10.0437    0.4571   -1.5306 C.ar    1  LIG1        0.1668
     20 C           9.9294   -0.0459    1.1642 C.ar    1  LIG1       -0.0503
     21 C          10.8958    1.1055   -0.6623 C.ar    1  LIG1        0.1663
     22 C           6.5863    1.9542    4.4631 C.ar    1  LIG1        0.1654
     23 C           4.7829    2.9900    3.1911 C.ar    1  LIG1        0.1654
     24 C           4.6344   -1.9373    2.4882 C.ar    1  LIG1        0.0222
     25 C           5.5853    2.9392    4.3515 C.ar    1  LIG1        0.2035
     26 C          10.8681    0.8728    0.6928 C.ar    1  LIG1       -0.0156
     27 C           8.4731   -3.0716    0.9669 C.2     1  LIG1        0.0726
     28 C          11.3253    1.7755   -2.6650 C.3     1  LIG1        0.2332
     29 C           3.7414   -1.7922    1.4254 C.ar    1  LIG1       -0.0475
     30 C           4.1316   -2.0224    3.7948 C.ar    1  LIG1       -0.0475
     31 C           2.3629   -1.6756    1.6749 C.ar    1  LIG1       -0.0193
     32 C           2.7625   -1.9189    4.0384 C.ar    1  LIG1       -0.0193
     33 C           1.8714   -1.7298    2.9832 C.ar    1  LIG1        0.1201
     34 C           7.9580    0.6340    5.8943 C.3     1  LIG1        0.0790
     35 C           2.7262    3.7414    2.2672 C.3     1  LIG1        0.0790
     36 C           6.2921    4.3102    6.1705 C.3     1  LIG1        0.0791
     37 C          -0.3870   -1.3329    2.3555 C.3     1  LIG1        0.0788
     38 H           5.3875    0.1404    0.4473 H       1  LIG1        0.0363
     39 H           6.9799    0.8076    0.3893 H       1  LIG1        0.0363
     40 H           4.4424    2.1578    1.2215 H       1  LIG1        0.0658
     41 H           7.6239    0.3613    3.4247 H       1  LIG1        0.0658
     42 H           8.4435   -0.9629   -1.7863 H       1  LIG1        0.0661
     43 H           9.8901   -0.2773    2.2274 H       1  LIG1        0.0625
     44 H          11.5492    1.3731    1.3704 H       1  LIG1        0.0655
     45 H          11.0165    2.7433   -3.0766 H       1  LIG1        0.1166
     46 H          12.1880    1.4129   -3.2368 H       1  LIG1        0.1166
     47 H           4.1037   -1.7858    0.4007 H       1  LIG1        0.0626
     48 H           4.8125   -2.1638    4.6319 H       1  LIG1        0.0626
     49 H           1.7002   -1.5557    0.8251 H       1  LIG1        0.0654
     50 H           2.3950   -1.9824    5.0592 H       1  LIG1        0.0654
     51 H           8.2925    0.6538    6.9358 H       1  LIG1        0.0660
     52 H           8.8464    0.5170    5.2653 H       1  LIG1        0.0660
     53 H           7.2731   -0.2134    5.7807 H       1  LIG1        0.0660
     54 H           1.9481    4.4731    2.5041 H       1  LIG1        0.0660
     55 H           2.2990    2.7427    2.4101 H       1  LIG1        0.0660
     56 H           3.0195    3.8992    1.2242 H       1  LIG1        0.0660
     57 H           5.9924    5.2844    6.5695 H       1  LIG1        0.0660
     58 H           7.2368    4.4548    5.6352 H       1  LIG1        0.0660
     59 H           6.4095    3.6369    7.0247 H       1  LIG1        0.0660
     60 H          -1.3678   -1.2532    2.8352 H       1  LIG1        0.0660
     61 H          -0.4421   -2.1396    1.6183 H       1  LIG1        0.0660
     62 H          -0.1706   -0.3712    1.8791 H       1  LIG1        0.0660
@<TRIPOS>BOND
     1     1    19    1
     2     1    28    1
     3     2    28    1
     4     2    21    1
     5     3    22    1
     6     3    34    1
     7     4    23    1
     8     4    35    1
     9     5    25    1
    10     5    36    1
    11     6    15    2
    12     7    27   ar
    13     8    27   ar
    14     9    33    1
    15     9    37    1
    16    10    11    1
    17    10    12    1
    18    11    13    2
    19    11    15    1
    20    12    16   ar
    21    12    17   ar
    22    13    14    1
    23    13    27    1
    24    14    20   ar
    25    14    18   ar
    26    15    24    1
    27    16    23   ar
    28    17    22   ar
    29    18    19   ar
    30    19    21   ar
    31    20    26   ar
    32    21    26   ar
    33    22    25   ar
    34    23    25   ar
    35    24    29   ar
    36    24    30   ar
    37    29    31   ar
    38    30    32   ar
    39    31    33   ar
    40    32    33   ar
    41    10    38    1
    42    10    39    1
    43    16    40    1
    44    17    41    1
    45    18    42    1
    46    20    43    1
    47    26    44    1
    48    28    45    1
    49    28    46    1
    50    29    47    1
    51    30    48    1
    52    31    49    1
    53    32    50    1
    54    34    51    1
    55    34    52    1
    56    34    53    1
    57    35    54    1
    58    35    55    1
    59    35    56    1
    60    36    57    1
    61    36    58    1
    62    36    59    1
    63    37    60    1
    64    37    61    1
    65    37    62    1
@<TRIPOS>MOLECULE
9871593
 62 65 0 0 0
SMALL
GASTEIGER

@<TRIPOS>ATOM
      1 O          10.2574    0.7581   -2.7900 O.3     1  LIG1       -0.4526
      2 O          11.7360    1.9385   -1.2902 O.3     1  LIG1       -0.4526
      3 O           7.4706    2.4107    5.3063 O.3     1  LIG1       -0.4913
      4 O           3.4430    3.8213    3.0634 O.3     1  LIG1       -0.4913
      5 O           5.2254    4.1102    5.1503 O.3     1  LIG1       -0.4885
      6 O           6.6407   -2.2571    3.4351 O.2     1  LIG1       -0.2870
      7 O           9.5670   -3.3001    1.5172 O.co2   1  LIG1       -0.5446
      8 O           7.5107   -3.8398    0.6576 O.co2   1  LIG1       -0.5446
      9 O           0.4588   -2.4268    2.0748 O.3     1  LIG1       -0.4951
     10 C           6.3096    0.3003    1.0613 C.3     1  LIG1        0.0021
     11 C           6.8390   -1.0707    1.3938 C.2     1  LIG1        0.0135
     12 C           5.9744    1.2267    2.2086 C.ar    1  LIG1       -0.0358
     13 C           8.0248   -1.5585    0.9656 C.2     1  LIG1        0.0117
     14 C           9.0538   -0.7088    0.3531 C.ar    1  LIG1       -0.0121
     15 C           6.0871   -1.8938    2.3968 C.2     1  LIG1        0.1901
     16 C           4.8322    2.0420    2.1174 C.ar    1  LIG1       -0.0126
     17 C           6.8298    1.3813    3.3036 C.ar    1  LIG1       -0.0126
     18 C           9.1248   -0.4997   -1.0291 C.ar    1  LIG1       -0.0084
     19 C          10.0607    0.4060   -1.4888 C.ar    1  LIG1        0.1668
     20 C           9.9362   -0.0191    1.2197 C.ar    1  LIG1       -0.0503
     21 C          10.9055    1.0828   -0.6350 C.ar    1  LIG1        0.1663
     22 C           6.5463    2.3204    4.2963 C.ar    1  LIG1        0.1654
     23 C           4.5426    3.0006    3.0950 C.ar    1  LIG1        0.1654
     24 C           4.6174   -2.0744    2.2761 C.ar    1  LIG1        0.0222
     25 C           5.4305    3.1631    4.1740 C.ar    1  LIG1        0.2035
     26 C          10.8739    0.8888    0.7266 C.ar    1  LIG1       -0.0156
     27 C           8.4046   -3.0502    1.0969 C.2     1  LIG1        0.0726
     28 C          11.3317    1.7089   -2.6531 C.3     1  LIG1        0.2332
     29 C           3.9409   -2.0931    1.0564 C.ar    1  LIG1       -0.0475
     30 C           3.8887   -2.2294    3.4646 C.ar    1  LIG1       -0.0475
     31 C           2.5442   -2.2094    1.0389 C.ar    1  LIG1       -0.0193
     32 C           2.4978   -2.3581    3.4435 C.ar    1  LIG1       -0.0193
     33 C           1.8162   -2.3347    2.2285 C.ar    1  LIG1        0.1201
     34 C           6.8861    2.2803    6.5998 C.3     1  LIG1        0.0790
     35 C           2.4544    3.5488    2.0792 C.3     1  LIG1        0.0790
     36 C           5.2271    5.4364    4.6252 C.3     1  LIG1        0.0791
     37 C          -0.3022   -2.6180    3.2622 C.3     1  LIG1        0.0788
     38 H           5.4177    0.1662    0.4365 H       1  LIG1        0.0363
     39 H           7.0015    0.8570    0.4187 H       1  LIG1        0.0363
     40 H           4.1910    1.9191    1.2499 H       1  LIG1        0.0658
     41 H           7.7239    0.7666    3.3941 H       1  LIG1        0.0658
     42 H           8.4635   -1.0225   -1.7097 H       1  LIG1        0.0661
     43 H           9.8865   -0.2133    2.2906 H       1  LIG1        0.0625
     44 H          11.5464    1.4145    1.3926 H       1  LIG1        0.0655
     45 H          11.0095    2.6639   -3.0844 H       1  LIG1        0.1166
     46 H          12.1982    1.3461   -3.2179 H       1  LIG1        0.1166
     47 H           4.4890   -2.0404    0.1193 H       1  LIG1        0.0626
     48 H           4.4124   -2.2465    4.4193 H       1  LIG1        0.0626
     49 H           2.0205   -2.2158    0.0864 H       1  LIG1        0.0654
     50 H           1.9892   -2.4729    4.3940 H       1  LIG1        0.0654
     51 H           7.6017    1.7516    7.2369 H       1  LIG1        0.0660
     52 H           5.9533    1.7041    6.5968 H       1  LIG1        0.0660
     53 H           6.7238    3.2711    7.0342 H       1  LIG1        0.0660
     54 H           1.6168    4.2316    2.2509 H       1  LIG1        0.0660
     55 H           2.0738    2.5260    2.1693 H       1  LIG1        0.0660
     56 H           2.8373    3.7441    1.0720 H       1  LIG1        0.0660
     57 H           5.7021    6.0875    5.3654 H       1  LIG1        0.0660
     58 H           4.1979    5.7831    4.4914 H       1  LIG1        0.0660
     59 H           5.7865    5.5326    3.6870 H       1  LIG1        0.0660
     60 H          -1.3582   -2.6711    2.9805 H       1  LIG1        0.0660
     61 H          -0.1870   -1.7726    3.9494 H       1  LIG1        0.0660
     62 H          -0.0406   -3.5626    3.7514 H       1  LIG1        0.0660
@<TRIPOS>BOND
     1     1    19    1
     2     1    28    1
     3     2    28    1
     4     2    21    1
     5     3    22    1
     6     3    34    1
     7     4    23    1
     8     4    35    1
     9     5    25    1
    10     5    36    1
    11     6    15    2
    12     7    27   ar
    13     8    27   ar
    14     9    33    1
    15     9    37    1
    16    10    11    1
    17    10    12    1
    18    11    13    2
    19    11    15    1
    20    12    16   ar
    21    12    17   ar
    22    13    14    1
    23    13    27    1
    24    14    20   ar
    25    14    18   ar
    26    15    24    1
    27    16    23   ar
    28    17    22   ar
    29    18    19   ar
    30    19    21   ar
    31    20    26   ar
    32    21    26   ar
    33    22    25   ar
    34    23    25   ar
    35    24    29   ar
    36    24    30   ar
    37    29    31   ar
    38    30    32   ar
    39    31    33   ar
    40    32    33   ar
    41    10    38    1
    42    10    39    1
    43    16    40    1
    44    17    41    1
    45    18    42    1
    46    20    43    1
    47    26    44    1
    48    28    45    1
    49    28    46    1
    50    29    47    1
    51    30    48    1
    52    31    49    1
    53    32    50    1
    54    34    51    1
    55    34    52    1
    56    34    53    1
    57    35    54    1
    58    35    55    1
    59    35    56    1
    60    36    57    1
    61    36    58    1
    62    36    59    1
    63    37    60    1
    64    37    61    1
    65    37    62    1
@<TRIPOS>MOLECULE
9871593
 62 65 0 0 0
SMALL
GASTEIGER

@<TRIPOS>ATOM
      1 O          10.1934    0.8546   -2.7506 O.3     1  LIG1       -0.4526
      2 O          11.6588    1.9754   -1.1938 O.3     1  LIG1       -0.4526
      3 O           7.9668    4.4306    2.7292 O.3     1  LIG1       -0.4913
      4 O           4.8116    2.0647    5.4511 O.3     1  LIG1       -0.4913
      5 O           6.3216    4.1535    5.1417 O.3     1  LIG1       -0.4885
      6 O           6.5117   -2.4641    3.3099 O.2     1  LIG1       -0.2870
      7 O           9.5149   -3.2901    1.3961 O.co2   1  LIG1       -0.5446
      8 O           7.4918   -3.8767    0.4880 O.co2   1  LIG1       -0.5446
      9 O           0.3432   -2.5447    2.0943 O.3     1  LIG1       -0.4951
     10 C           6.1083    0.1882    1.0484 C.3     1  LIG1        0.0021
     11 C           6.7009   -1.1693    1.3321 C.2     1  LIG1        0.0135
     12 C           6.2430    1.2183    2.1426 C.ar    1  LIG1       -0.0358
     13 C           7.9070   -1.5910    0.8911 C.2     1  LIG1        0.0117
     14 C           8.9165   -0.6842    0.3282 C.ar    1  LIG1       -0.0121
     15 C           5.9661   -2.0822    2.2704 C.2     1  LIG1        0.1901
     16 C           5.4813    1.1292    3.3080 C.ar    1  LIG1       -0.0126
     17 C           7.0872    2.3220    1.9750 C.ar    1  LIG1       -0.0126
     18 C           9.0119   -0.4329   -1.0448 C.ar    1  LIG1       -0.0084
     19 C           9.9649    0.4755   -1.4623 C.ar    1  LIG1        0.1668
     20 C           9.7881   -0.0265    1.2295 C.ar    1  LIG1       -0.0503
     21 C          10.8034    1.1163   -0.5760 C.ar    1  LIG1        0.1663
     22 C           7.1765    3.3290    2.9487 C.ar    1  LIG1        0.1654
     23 C           5.5597    2.1155    4.2947 C.ar    1  LIG1        0.1654
     24 C           4.5049   -2.3156    2.1177 C.ar    1  LIG1        0.0222
     25 C           6.3882    3.2456    4.1120 C.ar    1  LIG1        0.2035
     26 C          10.7464    0.8830    0.7784 C.ar    1  LIG1       -0.0156
     27 C           8.3464   -3.0712    0.9691 C.2     1  LIG1        0.0726
     28 C          11.3015    1.7585   -2.5729 C.3     1  LIG1        0.2332
     29 C           3.8352   -2.2248    0.8948 C.ar    1  LIG1       -0.0475
     30 C           3.7691   -2.5824    3.2837 C.ar    1  LIG1       -0.0475
     31 C           2.4358   -2.2978    0.8560 C.ar    1  LIG1       -0.0193
     32 C           2.3786   -2.6733    3.2410 C.ar    1  LIG1       -0.0193
     33 C           1.7093   -2.4851    2.0349 C.ar    1  LIG1        0.1201
     34 C           9.2399    4.1446    2.1528 C.3     1  LIG1        0.0790
     35 C           4.4889    0.7565    5.9140 C.3     1  LIG1        0.0790
     36 C           7.1623    5.2919    5.1192 C.3     1  LIG1        0.0791
     37 C          -0.3035   -1.5335    1.3267 C.3     1  LIG1        0.0788
     38 H           5.0442    0.1086    0.8025 H       1  LIG1        0.0363
     39 H           6.5353    0.5939    0.1213 H       1  LIG1        0.0363
     40 H           4.8011    0.2918    3.4237 H       1  LIG1        0.0658
     41 H           7.6526    2.3992    1.0499 H       1  LIG1        0.0658
     42 H           8.3666   -0.9392   -1.7532 H       1  LIG1        0.0661
     43 H           9.7205   -0.2568    2.2926 H       1  LIG1        0.0625
     44 H          11.4207    1.3702    1.4697 H       1  LIG1        0.0655
     45 H          11.0384    2.7248   -3.0183 H       1  LIG1        0.1166
     46 H          12.1740    1.3567   -3.1015 H       1  LIG1        0.1166
     47 H           4.3937   -2.0958   -0.0296 H       1  LIG1        0.0626
     48 H           4.2836   -2.6997    4.2357 H       1  LIG1        0.0626
     49 H           1.9337   -2.2202   -0.1030 H       1  LIG1        0.0654
     50 H           1.8207   -2.8647    4.1531 H       1  LIG1        0.0654
     51 H           9.8903    5.0029    2.3468 H       1  LIG1        0.0660
     52 H           9.1586    4.0322    1.0672 H       1  LIG1        0.0660
     53 H           9.7048    3.2639    2.6086 H       1  LIG1        0.0660
     54 H           4.1711    0.8414    6.9574 H       1  LIG1        0.0660
     55 H           5.3545    0.0852    5.8830 H       1  LIG1        0.0660
     56 H           3.6493    0.3425    5.3462 H       1  LIG1        0.0660
     57 H           6.9890    5.8465    6.0469 H       1  LIG1        0.0660
     58 H           6.9024    5.9614    4.2935 H       1  LIG1        0.0660
     59 H           8.2196    5.0095    5.1079 H       1  LIG1        0.0660
     60 H          -1.3320   -1.4462    1.6909 H       1  LIG1        0.0660
     61 H          -0.3438   -1.8163    0.2708 H       1  LIG1        0.0660
     62 H           0.1763   -0.5556    1.4510 H       1  LIG1        0.0660
@<TRIPOS>BOND
     1     1    19    1
     2     1    28    1
     3     2    28    1
     4     2    21    1
     5     3    22    1
     6     3    34    1
     7     4    23    1
     8     4    35    1
     9     5    25    1
    10     5    36    1
    11     6    15    2
    12     7    27   ar
    13     8    27   ar
    14     9    33    1
    15     9    37    1
    16    10    11    1
    17    10    12    1
    18    11    13    2
    19    11    15    1
    20    12    16   ar
    21    12    17   ar
    22    13    14    1
    23    13    27    1
    24    14    20   ar
    25    14    18   ar
    26    15    24    1
    27    16    23   ar
    28    17    22   ar
    29    18    19   ar
    30    19    21   ar
    31    20    26   ar
    32    21    26   ar
    33    22    25   ar
    34    23    25   ar
    35    24    29   ar
    36    24    30   ar
    37    29    31   ar
    38    30    32   ar
    39    31    33   ar
    40    32    33   ar
    41    10    38    1
    42    10    39    1
    43    16    40    1
    44    17    41    1
    45    18    42    1
    46    20    43    1
    47    26    44    1
    48    28    45    1
    49    28    46    1
    50    29    47    1
    51    30    48    1
    52    31    49    1
    53    32    50    1
    54    34    51    1
    55    34    52    1
    56    34    53    1
    57    35    54    1
    58    35    55    1
    59    35    56    1
    60    36    57    1
    61    36    58    1
    62    36    59    1
    63    37    60    1
    64    37    61    1
    65    37    62    1
@<TRIPOS>MOLECULE
9871593
 62 65 0 0 0
SMALL
GASTEIGER

@<TRIPOS>ATOM
      1 O          10.4403    0.9619   -2.7756 O.3     1  LIG1       -0.4526
      2 O          11.6561    2.2872   -1.1648 O.3     1  LIG1       -0.4526
      3 O           5.6547    4.6744    2.1239 O.3     1  LIG1       -0.4913
      4 O           7.1338    1.5952    5.5928 O.3     1  LIG1       -0.4913
      5 O           6.3869    4.2622    4.7910 O.3     1  LIG1       -0.4885
      6 O           4.7449   -2.3439    1.4629 O.2     1  LIG1       -0.2870
      7 O           9.8006   -3.1428    1.3751 O.co2   1  LIG1       -0.5446
      8 O           8.0843   -3.8343    0.0220 O.co2   1  LIG1       -0.5446
      9 O           7.7190   -6.2328    5.4719 O.3     1  LIG1       -0.4951
     10 C           6.1846    0.0364    0.9326 C.3     1  LIG1        0.0021
     11 C           6.8621   -1.3019    1.1683 C.2     1  LIG1        0.0135
     12 C           6.3218    1.1058    2.0015 C.ar    1  LIG1       -0.0358
     13 C           8.1206   -1.5801    0.7558 C.2     1  LIG1        0.0117
     14 C           9.0566   -0.5570    0.2672 C.ar    1  LIG1       -0.0121
     15 C           5.9483   -2.3586    1.7330 C.2     1  LIG1        0.1901
     16 C           6.7022    0.8423    3.3210 C.ar    1  LIG1       -0.0126
     17 C           5.9860    2.4224    1.6684 C.ar    1  LIG1       -0.0126
     18 C           9.2419   -0.3524   -1.1062 C.ar    1  LIG1       -0.0084
     19 C          10.1331    0.6263   -1.4927 C.ar    1  LIG1        0.1668
     20 C           9.7726    0.2239    1.2026 C.ar    1  LIG1       -0.0503
     21 C          10.8248    1.3844   -0.5749 C.ar    1  LIG1        0.1663
     22 C           6.0581    3.4526    2.6116 C.ar    1  LIG1        0.1654
     23 C           6.7818    1.8589    4.2917 C.ar    1  LIG1        0.1654
     24 C           6.4278   -3.3562    2.7355 C.ar    1  LIG1        0.0222
     25 C           6.4452    3.1849    3.9409 C.ar    1  LIG1        0.2035
     26 C          10.6681    1.2092    0.7818 C.ar    1  LIG1       -0.0156
     27 C           8.7402   -2.9971    0.7043 C.2     1  LIG1        0.0726
     28 C          11.4285    1.9867   -2.5560 C.3     1  LIG1        0.2332
     29 C           5.7249   -4.5644    2.8445 C.ar    1  LIG1       -0.0475
     30 C           7.5063   -3.1206    3.5960 C.ar    1  LIG1       -0.0475
     31 C           6.1273   -5.5441    3.7579 C.ar    1  LIG1       -0.0193
     32 C           7.9081   -4.1005    4.5091 C.ar    1  LIG1       -0.0193
     33 C           7.2389   -5.3211    4.5696 C.ar    1  LIG1        0.1201
     34 C           6.4875    5.7694    2.4899 C.3     1  LIG1        0.0790
     35 C           7.6637    0.3093    5.8953 C.3     1  LIG1        0.0790
     36 C           7.0669    4.2027    6.0338 C.3     1  LIG1        0.0791
     37 C           7.7631   -7.5614    4.9558 C.3     1  LIG1        0.0788
     38 H           5.1104   -0.1057    0.7565 H       1  LIG1        0.0363
     39 H           6.5576    0.4560   -0.0118 H       1  LIG1        0.0363
     40 H           6.9169   -0.1840    3.5881 H       1  LIG1        0.0658
     41 H           5.6585    2.6573    0.6574 H       1  LIG1        0.0658
     42 H           8.7125   -0.9528   -1.8381 H       1  LIG1        0.0661
     43 H           9.6438    0.0363    2.2658 H       1  LIG1        0.0625
     44 H          11.2263    1.7992    1.4968 H       1  LIG1        0.0655
     45 H          11.0993    2.9029   -3.0595 H       1  LIG1        0.1166
     46 H          12.3755    1.6635   -3.0035 H       1  LIG1        0.1166
     47 H           4.8759   -4.7543    2.1916 H       1  LIG1        0.0626
     48 H           8.0888   -2.2072    3.5336 H       1  LIG1        0.0626
     49 H           5.5668   -6.4705    3.8096 H       1  LIG1        0.0654
     50 H           8.7809   -3.9273    5.1320 H       1  LIG1        0.0654
     51 H           6.4478    6.5006    1.6762 H       1  LIG1        0.0660
     52 H           7.5361    5.4819    2.6249 H       1  LIG1        0.0660
     53 H           6.0950    6.2600    3.3855 H       1  LIG1        0.0660
     54 H           8.0109    0.3294    6.9327 H       1  LIG1        0.0660
     55 H           8.5261    0.0714    5.2634 H       1  LIG1        0.0660
     56 H           6.8880   -0.4597    5.8214 H       1  LIG1        0.0660
     57 H           7.1070    5.2211    6.4338 H       1  LIG1        0.0660
     58 H           8.1010    3.8620    5.9198 H       1  LIG1        0.0660
     59 H           6.5084    3.5999    6.7560 H       1  LIG1        0.0660
     60 H           8.4625   -8.1355    5.5711 H       1  LIG1        0.0660
     61 H           8.1268   -7.5916    3.9220 H       1  LIG1        0.0660
     62 H           6.7802   -8.0360    5.0362 H       1  LIG1        0.0660
@<TRIPOS>BOND
     1     1    19    1
     2     1    28    1
     3     2    28    1
     4     2    21    1
     5     3    22    1
     6     3    34    1
     7     4    23    1
     8     4    35    1
     9     5    25    1
    10     5    36    1
    11     6    15    2
    12     7    27   ar
    13     8    27   ar
    14     9    33    1
    15     9    37    1
    16    10    11    1
    17    10    12    1
    18    11    13    2
    19    11    15    1
    20    12    16   ar
    21    12    17   ar
    22    13    14    1
    23    13    27    1
    24    14    20   ar
    25    14    18   ar
    26    15    24    1
    27    16    23   ar
    28    17    22   ar
    29    18    19   ar
    30    19    21   ar
    31    20    26   ar
    32    21    26   ar
    33    22    25   ar
    34    23    25   ar
    35    24    29   ar
    36    24    30   ar
    37    29    31   ar
    38    30    32   ar
    39    31    33   ar
    40    32    33   ar
    41    10    38    1
    42    10    39    1
    43    16    40    1
    44    17    41    1
    45    18    42    1
    46    20    43    1
    47    26    44    1
    48    28    45    1
    49    28    46    1
    50    29    47    1
    51    30    48    1
    52    31    49    1
    53    32    50    1
    54    34    51    1
    55    34    52    1
    56    34    53    1
    57    35    54    1
    58    35    55    1
    59    35    56    1
    60    36    57    1
    61    36    58    1
    62    36    59    1
    63    37    60    1
    64    37    61    1
    65    37    62    1
@<TRIPOS>MOLECULE
9871593
 62 65 0 0 0
SMALL
GASTEIGER

@<TRIPOS>ATOM
      1 O          10.2369    0.8113   -2.7929 O.3     1  LIG1       -0.4526
      2 O          11.7310    1.9253   -1.2574 O.3     1  LIG1       -0.4526
      3 O           7.3412    1.9167    5.5267 O.3     1  LIG1       -0.4913
      4 O           3.8446    4.0310    3.0580 O.3     1  LIG1       -0.4913
      5 O           5.2853    3.9296    5.2203 O.3     1  LIG1       -0.4885
      6 O           6.5815   -2.3245    3.3218 O.2     1  LIG1       -0.2870
      7 O           9.5376   -3.2972    1.5706 O.co2   1  LIG1       -0.5446
      8 O           7.5546   -3.9123    0.5958 O.co2   1  LIG1       -0.5446
      9 O           0.3887   -2.3726    2.2297 O.3     1  LIG1       -0.4951
     10 C           6.2684    0.2483    0.9746 C.3     1  LIG1        0.0021
     11 C           6.7858   -1.1375    1.2802 C.2     1  LIG1        0.0135
     12 C           6.0131    1.1625    2.1529 C.ar    1  LIG1       -0.0358
     13 C           7.9877   -1.6125    0.8820 C.2     1  LIG1        0.0117
     14 C           9.0258   -0.7523    0.3000 C.ar    1  LIG1       -0.0121
     15 C           6.0269   -1.9623    2.2824 C.2     1  LIG1        0.1901
     16 C           5.0126    2.1359    2.0622 C.ar    1  LIG1       -0.0126
     17 C           6.8122    1.1229    3.3009 C.ar    1  LIG1       -0.0126
     18 C           9.0970   -0.4956   -1.0737 C.ar    1  LIG1       -0.0084
     19 C          10.0400    0.4164   -1.5047 C.ar    1  LIG1        0.1668
     20 C           9.9181   -0.1010    1.1869 C.ar    1  LIG1       -0.0503
     21 C          10.8937    1.0550   -0.6293 C.ar    1  LIG1        0.1663
     22 C           6.5990    1.9976    4.3751 C.ar    1  LIG1        0.1654
     23 C           4.7964    3.0374    3.1092 C.ar    1  LIG1        0.1654
     24 C           4.5525   -2.1240    2.1705 C.ar    1  LIG1        0.0222
     25 C           5.6081    2.9919    4.2651 C.ar    1  LIG1        0.2035
     26 C          10.8627    0.8138    0.7228 C.ar    1  LIG1       -0.0156
     27 C           8.3986   -3.0910    1.0655 C.2     1  LIG1        0.0726
     28 C          11.3177    1.7508   -2.6256 C.3     1  LIG1        0.2332
     29 C           3.8609   -2.0791    0.9570 C.ar    1  LIG1       -0.0475
     30 C           3.8337   -2.3197    3.3599 C.ar    1  LIG1       -0.0475
     31 C           2.4598   -2.1514    0.9442 C.ar    1  LIG1       -0.0193
     32 C           2.4422   -2.4119    3.3437 C.ar    1  LIG1       -0.0193
     33 C           1.7517   -2.2900    2.1411 C.ar    1  LIG1        0.1201
     34 C           7.9239    0.6470    5.8174 C.3     1  LIG1        0.0790
     35 C           2.7248    3.7833    2.2180 C.3     1  LIG1        0.0790
     36 C           6.2910    4.2986    6.1504 C.3     1  LIG1        0.0791
     37 C          -0.3023   -1.4586    1.3850 C.3     1  LIG1        0.0788
     38 H           5.3426    0.1451    0.3963 H       1  LIG1        0.0363
     39 H           6.9453    0.7929    0.3065 H       1  LIG1        0.0363
     40 H           4.4277    2.1915    1.1498 H       1  LIG1        0.0658
     41 H           7.6089    0.3850    3.3435 H       1  LIG1        0.0658
     42 H           8.4296   -0.9880   -1.7714 H       1  LIG1        0.0661
     43 H           9.8704   -0.3345    2.2504 H       1  LIG1        0.0625
     44 H          11.5424    1.3091    1.4058 H       1  LIG1        0.0655
     45 H          10.9984    2.7234   -3.0176 H       1  LIG1        0.1166
     46 H          12.1790    1.4052   -3.2087 H       1  LIG1        0.1166
     47 H           4.4029   -2.0080    0.0173 H       1  LIG1        0.0626
     48 H           4.3624   -2.3942    4.3085 H       1  LIG1        0.0626
     49 H           1.9447   -2.1255   -0.0104 H       1  LIG1        0.0654
     50 H           1.9014   -2.5612    4.2737 H       1  LIG1        0.0654
     51 H           8.2566    0.6682    6.8595 H       1  LIG1        0.0660
     52 H           8.8065    0.4720    5.1940 H       1  LIG1        0.0660
     53 H           7.1958   -0.1655    5.7170 H       1  LIG1        0.0660
     54 H           1.9542    4.5205    2.4631 H       1  LIG1        0.0660
     55 H           2.3006    2.7882    2.3911 H       1  LIG1        0.0660
     56 H           2.9890    3.9211    1.1645 H       1  LIG1        0.0660
     57 H           5.9958    5.2557    6.5917 H       1  LIG1        0.0660
     58 H           7.2652    4.4493    5.6732 H       1  LIG1        0.0660
     59 H           6.3434    3.5733    6.9677 H       1  LIG1        0.0660
     60 H          -1.3334   -1.3879    1.7460 H       1  LIG1        0.0660
     61 H          -0.3325   -1.8272    0.3556 H       1  LIG1        0.0660
     62 H           0.1346   -0.4545    1.4295 H       1  LIG1        0.0660
@<TRIPOS>BOND
     1     1    19    1
     2     1    28    1
     3     2    28    1
     4     2    21    1
     5     3    22    1
     6     3    34    1
     7     4    23    1
     8     4    35    1
     9     5    25    1
    10     5    36    1
    11     6    15    2
    12     7    27   ar
    13     8    27   ar
    14     9    33    1
    15     9    37    1
    16    10    11    1
    17    10    12    1
    18    11    13    2
    19    11    15    1
    20    12    16   ar
    21    12    17   ar
    22    13    14    1
    23    13    27    1
    24    14    20   ar
    25    14    18   ar
    26    15    24    1
    27    16    23   ar
    28    17    22   ar
    29    18    19   ar
    30    19    21   ar
    31    20    26   ar
    32    21    26   ar
    33    22    25   ar
    34    23    25   ar
    35    24    29   ar
    36    24    30   ar
    37    29    31   ar
    38    30    32   ar
    39    31    33   ar
    40    32    33   ar
    41    10    38    1
    42    10    39    1
    43    16    40    1
    44    17    41    1
    45    18    42    1
    46    20    43    1
    47    26    44    1
    48    28    45    1
    49    28    46    1
    50    29    47    1
    51    30    48    1
    52    31    49    1
    53    32    50    1
    54    34    51    1
    55    34    52    1
    56    34    53    1
    57    35    54    1
    58    35    55    1
    59    35    56    1
    60    36    57    1
    61    36    58    1
    62    36    59    1
    63    37    60    1
    64    37    61    1
    65    37    62    1
