@<TRIPOS>MOLECULE
02228316B
 82 86 0 0 0
SMALL
GASTEIGER

@<TRIPOS>ATOM
      1 C          -6.3140    0.9124    4.1871 C.3     1  LIG1        0.2491
      2 C          -7.1093    1.7054    3.1703 C.2     1  LIG1        0.3556
      3 N          -6.2271   -0.4473    3.5924 N.2     1  LIG1       -0.0687
      4 C          -4.9035    1.4752    4.3933 C.3     1  LIG1        0.0059
      5 C          -6.9854    0.8631    5.5601 C.3     1  LIG1        0.0059
      6 N          -7.2606    0.8754    2.0968 N.am    1  LIG1       -0.1529
      7 O          -7.5421    2.8380    3.3046 O.2     1  LIG1       -0.2422
      8 C          -6.7639   -0.3341    2.4161 C.cat   1  LIG1        0.2916
      9 C          -4.9050    2.0104    5.8199 C.3     1  LIG1       -0.0481
     10 C          -5.8491    1.0726    6.5528 C.3     1  LIG1       -0.0481
     11 C          -8.0085    1.2684    0.9189 C.3     1  LIG1        0.1137
     12 C          -6.8920   -1.4991    1.4600 C.3     1  LIG1        0.0509
     13 C          -7.2195    2.0010   -0.1442 C.ar    1  LIG1       -0.0073
     14 C          -6.0858   -2.7457    1.8312 C.3     1  LIG1       -0.0424
     15 C          -7.9127    2.4427   -1.2757 C.ar    1  LIG1       -0.0491
     16 C          -5.8540    2.2674   -0.0828 C.ar    1  LIG1       -0.0544
     17 C          -4.6568   -2.7552    1.2794 C.3     1  LIG1       -0.0554
     18 C          -7.2856    3.1595   -2.3213 C.ar    1  LIG1       -0.0138
     19 C          -5.2192    2.9962   -1.1026 C.ar    1  LIG1       -0.0533
     20 C          -3.7538   -1.6783    1.8562 C.3     1  LIG1       -0.0653
     21 C          -5.9195    3.5168   -2.2080 C.ar    1  LIG1       -0.0106
     22 C          -8.1587    3.4815   -3.5164 C.3     1  LIG1        0.0732
     23 C          -5.2291    4.3628   -3.2175 C.ar    1  LIG1        0.0091
     24 O          -8.8801    2.3218   -3.9647 O.3     1  LIG1       -0.3754
     25 C          -4.7512    5.6816   -3.0183 C.ar    1  LIG1        0.1162
     26 C          -5.0598    3.8282   -4.5143 C.ar    1  LIG1       -0.0521
     27 C          -8.1461    1.4309   -4.8038 C.3     1  LIG1        0.0453
     28 S          -4.6214    6.4647   -1.4051 S.O2    1  LIG1        0.0741
     29 C          -4.2463    6.4422   -4.0939 C.ar    1  LIG1       -0.0345
     30 C          -4.5498    4.5825   -5.5764 C.ar    1  LIG1       -0.0611
     31 C          -7.3583    0.3946   -4.0167 C.3     1  LIG1       -0.0416
     32 N          -3.1149    5.8174   -0.9435 N.pl3   1  LIG1       -0.1965
     33 O          -4.4378    7.8863   -1.6166 O.2     1  LIG1       -0.1499
     34 O          -5.6885    5.9696   -0.5701 O.2     1  LIG1       -0.1499
     35 C          -4.1628    5.8981   -5.3705 C.ar    1  LIG1       -0.0599
     36 C          -2.7381    5.9164    0.3913 C.ar    1  LIG1        0.1837
     37 C          -1.5471    6.5325    0.8500 C.ar    1  LIG1        0.0342
     38 N          -3.3211    5.1954    1.3478 N.ar    1  LIG1       -0.0614
     39 C          -1.5161    6.2101    2.1908 C.ar    1  LIG1        0.1390
     40 C          -0.5400    7.2912    0.0762 C.3     1  LIG1       -0.0330
     41 O          -2.5873    5.4303    2.4937 O.2     1  LIG1       -0.3578
     42 C          -0.5847    6.4836    3.3007 C.3     1  LIG1       -0.0034
     43 H          -4.6406    2.2629    3.6792 H       1  LIG1        0.0316
     44 H          -4.1477    0.6848    4.3040 H       1  LIG1        0.0316
     45 H          -7.5089   -0.0794    5.7521 H       1  LIG1        0.0316
     46 H          -7.7168    1.6726    5.6741 H       1  LIG1        0.0316
     47 H          -5.2973    3.0341    5.8375 H       1  LIG1        0.0267
     48 H          -3.9034    2.0200    6.2590 H       1  LIG1        0.0267
     49 H          -5.3509    0.1186    6.7618 H       1  LIG1        0.0267
     50 H          -6.1993    1.4913    7.5006 H       1  LIG1        0.0267
     51 H          -8.8284    1.9201    1.2455 H       1  LIG1        0.0783
     52 H          -8.4529    0.3751    0.4665 H       1  LIG1        0.0783
     53 H          -6.6470   -1.1720    0.4438 H       1  LIG1        0.0387
     54 H          -7.9557   -1.7713    1.4618 H       1  LIG1        0.0387
     55 H          -6.6006   -3.6156    1.4027 H       1  LIG1        0.0271
     56 H          -6.0689   -2.9066    2.9152 H       1  LIG1        0.0271
     57 H          -8.9768    2.2167   -1.3675 H       1  LIG1        0.0625
     58 H          -5.2554    1.9462    0.7664 H       1  LIG1        0.0622
     59 H          -4.6821   -2.6593    0.1875 H       1  LIG1        0.0263
     60 H          -4.2114   -3.7337    1.4968 H       1  LIG1        0.0263
     61 H          -4.1528    3.1543   -0.9930 H       1  LIG1        0.0624
     62 H          -4.0868   -0.6777    1.5663 H       1  LIG1        0.0230
     63 H          -2.7331   -1.8060    1.4817 H       1  LIG1        0.0230
     64 H          -3.7195   -1.7365    2.9485 H       1  LIG1        0.0230
     65 H          -7.6373    3.9352   -4.3606 H       1  LIG1        0.0610
     66 H          -8.9079    4.2134   -3.1922 H       1  LIG1        0.0610
     67 H          -5.3601    2.8014   -4.7175 H       1  LIG1        0.0624
     68 H          -7.5045    1.9786   -5.5016 H       1  LIG1        0.0557
     69 H          -8.8882    0.8974   -5.4074 H       1  LIG1        0.0557
     70 H          -3.8990    7.4636   -3.9403 H       1  LIG1        0.0637
     71 H          -4.4701    4.1415   -6.5672 H       1  LIG1        0.0618
     72 H          -6.4894    0.8374   -3.5235 H       1  LIG1        0.0252
     73 H          -6.9882   -0.3932   -4.6797 H       1  LIG1        0.0252
     74 H          -7.9783   -0.0625   -3.2386 H       1  LIG1        0.0252
     75 H          -3.0977    4.8466   -1.2356 H       1  LIG1        0.1753
     76 H          -3.7779    6.4949   -6.1942 H       1  LIG1        0.0618
     77 H          -0.7543    7.2750   -0.9968 H       1  LIG1        0.0280
     78 H           0.4555    6.8565    0.2193 H       1  LIG1        0.0280
     79 H          -0.5091    8.3349    0.4022 H       1  LIG1        0.0280
     80 H           0.3116    7.0028    2.9487 H       1  LIG1        0.0309
     81 H          -0.2679    5.5481    3.7728 H       1  LIG1        0.0309
     82 H          -1.0659    7.1073    4.0596 H       1  LIG1        0.0309
@<TRIPOS>BOND
     1     1     5    1
     2     1     4    1
     3     1     2    1
     4     1     3    1
     5     2     6   am
     6     2     7    2
     7     3     8    2
     8     4     9    1
     9     5    10    1
    10     6     8    1
    11     6    11    1
    12     8    12    1
    13     9    10    1
    14    11    13    1
    15    12    14    1
    16    13    15   ar
    17    13    16   ar
    18    14    17    1
    19    15    18   ar
    20    16    19   ar
    21    17    20    1
    22    18    21   ar
    23    18    22    1
    24    19    21   ar
    25    21    23    1
    26    22    24    1
    27    23    26   ar
    28    23    25   ar
    29    24    27    1
    30    25    29   ar
    31    25    28    1
    32    26    30   ar
    33    27    31    1
    34    28    34    2
    35    28    33    2
    36    28    32    1
    37    29    35   ar
    38    30    35   ar
    39    32    36    1
    40    36    37   ar
    41    36    38   ar
    42    37    39   ar
    43    37    40    1
    44    38    41   ar
    45    39    41   ar
    46    39    42    1
    47     4    43    1
    48     4    44    1
    49     5    45    1
    50     5    46    1
    51     9    47    1
    52     9    48    1
    53    10    49    1
    54    10    50    1
    55    11    51    1
    56    11    52    1
    57    12    53    1
    58    12    54    1
    59    14    55    1
    60    14    56    1
    61    15    57    1
    62    16    58    1
    63    17    59    1
    64    17    60    1
    65    19    61    1
    66    20    62    1
    67    20    63    1
    68    20    64    1
    69    22    65    1
    70    22    66    1
    71    26    67    1
    72    27    68    1
    73    27    69    1
    74    29    70    1
    75    30    71    1
    76    31    72    1
    77    31    73    1
    78    31    74    1
    79    32    75    1
    80    35    76    1
    81    40    77    1
    82    40    78    1
    83    40    79    1
    84    42    80    1
    85    42    81    1
    86    42    82    1
@<TRIPOS>MOLECULE
02228316B
 82 86 0 0 0
SMALL
GASTEIGER

@<TRIPOS>ATOM
      1 C          -9.8589   -1.7131   -1.0532 C.3     1  LIG1        0.2491
      2 C          -9.8166   -0.2431   -0.7212 C.2     1  LIG1        0.3556
      3 N          -8.8275   -2.2845   -0.1683 N.2     1  LIG1       -0.0687
      4 C         -11.2239   -2.3574   -0.8142 C.3     1  LIG1        0.0059
      5 C          -9.4880   -1.9788   -2.5176 C.3     1  LIG1        0.0059
      6 N          -8.6940   -0.0574    0.0506 N.am    1  LIG1       -0.1529
      7 O         -10.6154    0.6011   -1.0946 O.2     1  LIG1       -0.2422
      8 C          -8.2183   -1.2685    0.3767 C.cat   1  LIG1        0.2916
      9 C         -11.7309   -2.7202   -2.2070 C.3     1  LIG1       -0.0481
     10 C         -10.4625   -3.0568   -2.9714 C.3     1  LIG1       -0.0481
     11 C          -8.3723    1.2897    0.5037 C.3     1  LIG1        0.1137
     12 C          -7.0395   -1.6288    1.2727 C.3     1  LIG1        0.0509
     13 C          -7.5673    2.1445   -0.4603 C.ar    1  LIG1       -0.0073
     14 C          -6.2729   -0.6210    2.1088 C.3     1  LIG1       -0.0424
     15 C          -7.7990    2.1491   -1.8411 C.ar    1  LIG1       -0.0491
     16 C          -6.6845    3.1024    0.0457 C.ar    1  LIG1       -0.0544
     17 C          -6.9796   -0.2698    3.4207 C.3     1  LIG1       -0.0554
     18 C          -7.1762    3.0739   -2.7140 C.ar    1  LIG1       -0.0138
     19 C          -6.0622    4.0282   -0.8019 C.ar    1  LIG1       -0.0533
     20 C          -6.2330    0.8288    4.1625 C.3     1  LIG1       -0.0653
     21 C          -6.2695    4.0287   -2.1928 C.ar    1  LIG1       -0.0106
     22 C          -7.5797    3.0071   -4.1764 C.3     1  LIG1        0.0732
     23 C          -5.6411    5.0836   -3.0225 C.ar    1  LIG1        0.0091
     24 O          -6.5833    2.4376   -5.0180 O.3     1  LIG1       -0.3754
     25 C          -4.2616    5.2232   -3.2789 C.ar    1  LIG1        0.1162
     26 C          -6.4932    6.0512   -3.6055 C.ar    1  LIG1       -0.0521
     27 C          -6.4196    1.0260   -4.9047 C.3     1  LIG1        0.0453
     28 S          -3.0106    4.1749   -2.5577 S.O2    1  LIG1        0.0741
     29 C          -3.7879    6.2418   -4.1349 C.ar    1  LIG1       -0.0345
     30 C          -6.0207    7.0485   -4.4634 C.ar    1  LIG1       -0.0611
     31 C          -7.6377    0.2446   -5.3693 C.3     1  LIG1       -0.0416
     32 N          -3.4583    2.6108   -3.0187 N.pl3   1  LIG1       -0.1965
     33 O          -1.7469    4.5119   -3.1838 O.2     1  LIG1       -0.1499
     34 O          -3.1343    4.2538   -1.1174 O.2     1  LIG1       -0.1499
     35 C          -4.6656    7.1369   -4.7379 C.ar    1  LIG1       -0.0599
     36 C          -2.6402    1.9760   -3.9465 C.ar    1  LIG1        0.1837
     37 C          -2.5630    2.2365   -5.3360 C.ar    1  LIG1        0.0342
     38 N          -1.8344    0.9793   -3.5779 N.ar    1  LIG1       -0.0614
     39 C          -1.5381    1.4152   -5.7544 C.ar    1  LIG1        0.1390
     40 C          -3.3667    3.1647   -6.1591 C.3     1  LIG1       -0.0330
     41 O          -1.1042    0.6600   -4.7103 O.2     1  LIG1       -0.3578
     42 C          -0.8505    1.2115   -7.0428 C.3     1  LIG1       -0.0034
     43 H         -11.9336   -1.6981   -0.3032 H       1  LIG1        0.0316
     44 H         -11.1287   -3.2693   -0.2128 H       1  LIG1        0.0316
     45 H          -8.4504   -2.3025   -2.6535 H       1  LIG1        0.0316
     46 H          -9.6353   -1.0801   -3.1278 H       1  LIG1        0.0316
     47 H         -12.2284   -1.8562   -2.6646 H       1  LIG1        0.0267
     48 H         -12.4403   -3.5522   -2.1877 H       1  LIG1        0.0267
     49 H         -10.0943   -4.0476   -2.6799 H       1  LIG1        0.0267
     50 H         -10.6115   -3.0511   -4.0550 H       1  LIG1        0.0267
     51 H          -7.8637    1.2446    1.4606 H       1  LIG1        0.0783
     52 H          -9.3138    1.8223    0.6922 H       1  LIG1        0.0783
     53 H          -6.3143   -2.1050    0.5973 H       1  LIG1        0.0387
     54 H          -7.3874   -2.4362    1.9337 H       1  LIG1        0.0387
     55 H          -6.0236    0.2664    1.5224 H       1  LIG1        0.0271
     56 H          -5.3072   -1.0741    2.3733 H       1  LIG1        0.0271
     57 H          -8.5206    1.4562   -2.2674 H       1  LIG1        0.0625
     58 H          -6.4962    3.1749    1.1156 H       1  LIG1        0.0622
     59 H          -7.0347   -1.1590    4.0601 H       1  LIG1        0.0263
     60 H          -8.0116    0.0483    3.2414 H       1  LIG1        0.0263
     61 H          -5.4253    4.7869   -0.3463 H       1  LIG1        0.0624
     62 H          -5.2211    0.5042    4.4261 H       1  LIG1        0.0230
     63 H          -6.7579    1.0904    5.0862 H       1  LIG1        0.0230
     64 H          -6.1538    1.7323    3.5493 H       1  LIG1        0.0230
     65 H          -7.7907    4.0103   -4.5546 H       1  LIG1        0.0610
     66 H          -8.5358    2.4852   -4.2985 H       1  LIG1        0.0610
     67 H          -7.5634    6.0223   -3.3999 H       1  LIG1        0.0624
     68 H          -6.1367    0.7520   -3.8837 H       1  LIG1        0.0557
     69 H          -5.5756    0.7633   -5.5508 H       1  LIG1        0.0557
     70 H          -2.7236    6.3466   -4.3423 H       1  LIG1        0.0637
     71 H          -6.7160    7.7518   -4.9152 H       1  LIG1        0.0618
     72 H          -8.4690    0.3492   -4.6666 H       1  LIG1        0.0252
     73 H          -7.4040   -0.8211   -5.4470 H       1  LIG1        0.0252
     74 H          -7.9890    0.6063   -6.3408 H       1  LIG1        0.0252
     75 H          -3.5617    2.0706   -2.1597 H       1  LIG1        0.1753
     76 H          -4.2879    7.9068   -5.4061 H       1  LIG1        0.0618
     77 H          -4.2453    3.5241   -5.6202 H       1  LIG1        0.0280
     78 H          -3.7284    2.6584   -7.0603 H       1  LIG1        0.0280
     79 H          -2.7710    4.0300   -6.4633 H       1  LIG1        0.0280
     80 H          -1.5045    1.4687   -7.8815 H       1  LIG1        0.0309
     81 H          -0.5393    0.1699   -7.1635 H       1  LIG1        0.0309
     82 H           0.0397    1.8461   -7.0994 H       1  LIG1        0.0309
@<TRIPOS>BOND
     1     1     5    1
     2     1     4    1
     3     1     2    1
     4     1     3    1
     5     2     6   am
     6     2     7    2
     7     3     8    2
     8     4     9    1
     9     5    10    1
    10     6     8    1
    11     6    11    1
    12     8    12    1
    13     9    10    1
    14    11    13    1
    15    12    14    1
    16    13    15   ar
    17    13    16   ar
    18    14    17    1
    19    15    18   ar
    20    16    19   ar
    21    17    20    1
    22    18    21   ar
    23    18    22    1
    24    19    21   ar
    25    21    23    1
    26    22    24    1
    27    23    26   ar
    28    23    25   ar
    29    24    27    1
    30    25    29   ar
    31    25    28    1
    32    26    30   ar
    33    27    31    1
    34    28    34    2
    35    28    33    2
    36    28    32    1
    37    29    35   ar
    38    30    35   ar
    39    32    36    1
    40    36    37   ar
    41    36    38   ar
    42    37    39   ar
    43    37    40    1
    44    38    41   ar
    45    39    41   ar
    46    39    42    1
    47     4    43    1
    48     4    44    1
    49     5    45    1
    50     5    46    1
    51     9    47    1
    52     9    48    1
    53    10    49    1
    54    10    50    1
    55    11    51    1
    56    11    52    1
    57    12    53    1
    58    12    54    1
    59    14    55    1
    60    14    56    1
    61    15    57    1
    62    16    58    1
    63    17    59    1
    64    17    60    1
    65    19    61    1
    66    20    62    1
    67    20    63    1
    68    20    64    1
    69    22    65    1
    70    22    66    1
    71    26    67    1
    72    27    68    1
    73    27    69    1
    74    29    70    1
    75    30    71    1
    76    31    72    1
    77    31    73    1
    78    31    74    1
    79    32    75    1
    80    35    76    1
    81    40    77    1
    82    40    78    1
    83    40    79    1
    84    42    80    1
    85    42    81    1
    86    42    82    1
@<TRIPOS>MOLECULE
02228316B
 82 86 0 0 0
SMALL
GASTEIGER

@<TRIPOS>ATOM
      1 C          -8.6359    1.8548    4.1654 C.3     1  LIG1        0.2491
      2 C          -7.5846    1.7501    3.0878 C.2     1  LIG1        0.3556
      3 N          -9.7474    1.0324    3.6337 N.2     1  LIG1       -0.0687
      4 C          -8.1687    1.3613    5.5327 C.3     1  LIG1        0.0059
      5 C          -9.1037    3.3066    4.3461 C.3     1  LIG1        0.0059
      6 N          -8.2407    1.2763    1.9828 N.am    1  LIG1       -0.1529
      7 O          -6.3985    2.0126    3.2060 O.2     1  LIG1       -0.2422
      8 C          -9.4267    0.7968    2.3925 C.cat   1  LIG1        0.2916
      9 C          -8.0291    2.6299    6.3682 C.3     1  LIG1       -0.0481
     10 C          -9.1507    3.5155    5.8539 C.3     1  LIG1       -0.0481
     11 C          -7.5333    1.0788    0.7361 C.3     1  LIG1        0.1137
     12 C         -10.4253    0.0587    1.5175 C.3     1  LIG1        0.0509
     13 C          -7.4156    2.2894   -0.1627 C.ar    1  LIG1       -0.0073
     14 C         -10.0042   -1.1893    0.7405 C.3     1  LIG1       -0.0424
     15 C          -7.7263    2.1572   -1.5228 C.ar    1  LIG1       -0.0491
     16 C          -6.8145    3.4738    0.2589 C.ar    1  LIG1       -0.0544
     17 C          -9.0127   -2.1335    1.4188 C.3     1  LIG1       -0.0554
     18 C          -7.2757    3.0839   -2.4849 C.ar    1  LIG1       -0.0138
     19 C          -6.4237    4.4382   -0.6732 C.ar    1  LIG1       -0.0533
     20 C          -9.5833   -2.8433    2.6335 C.3     1  LIG1       -0.0653
     21 C          -6.5381    4.2141   -2.0530 C.ar    1  LIG1       -0.0106
     22 C          -7.5484    2.8321   -3.9579 C.3     1  LIG1        0.0732
     23 C          -5.8416    5.1276   -2.9833 C.ar    1  LIG1        0.0091
     24 O          -8.2658    1.6178   -4.2088 O.3     1  LIG1       -0.3754
     25 C          -4.4348    5.2441   -3.0984 C.ar    1  LIG1        0.1162
     26 C          -6.6250    5.9446   -3.8266 C.ar    1  LIG1       -0.0521
     27 C          -7.4888    0.5965   -4.8297 C.3     1  LIG1        0.0453
     28 S          -3.2578    4.3123   -2.1170 S.O2    1  LIG1        0.0741
     29 C          -3.8652    6.0980   -4.0665 C.ar    1  LIG1       -0.0345
     30 C          -6.0510    6.7907   -4.7797 C.ar    1  LIG1       -0.0611
     31 C          -6.5867   -0.1142   -3.8371 C.3     1  LIG1       -0.0416
     32 N          -2.8708    5.4253   -0.8886 N.pl3   1  LIG1       -0.1965
     33 O          -3.8562    3.1133   -1.5829 O.2     1  LIG1       -0.1499
     34 O          -2.0358    4.2116   -2.8960 O.2     1  LIG1       -0.1499
     35 C          -4.6712    6.8614   -4.9059 C.ar    1  LIG1       -0.0599
     36 C          -2.9530    4.9896    0.4356 C.ar    1  LIG1        0.1837
     37 C          -2.0032    4.2085    1.1438 C.ar    1  LIG1        0.0342
     38 N          -3.9253    5.4243    1.2380 N.ar    1  LIG1       -0.0614
     39 C          -2.5501    4.1105    2.4077 C.ar    1  LIG1        0.1390
     40 C          -0.7395    3.6059    0.6669 C.3     1  LIG1       -0.0330
     41 O          -3.6974    4.8343    2.4630 O.2     1  LIG1       -0.3578
     42 C          -2.1682    3.4144    3.6508 C.3     1  LIG1       -0.0034
     43 H          -7.2229    0.8105    5.4993 H       1  LIG1        0.0316
     44 H          -8.9181    0.7040    5.9897 H       1  LIG1        0.0316
     45 H         -10.0803    3.5081    3.8926 H       1  LIG1        0.0316
     46 H          -8.3862    4.0099    3.9048 H       1  LIG1        0.0316
     47 H          -7.0578    3.1032    6.1798 H       1  LIG1        0.0267
     48 H          -8.1119    2.4329    7.4406 H       1  LIG1        0.0267
     49 H         -10.1146    3.1759    6.2511 H       1  LIG1        0.0267
     50 H          -9.0172    4.5652    6.1303 H       1  LIG1        0.0267
     51 H          -8.0001    0.2735    0.1775 H       1  LIG1        0.0783
     52 H          -6.5153    0.7344    0.9620 H       1  LIG1        0.0783
     53 H         -10.8401    0.7907    0.8139 H       1  LIG1        0.0387
     54 H         -11.2610   -0.2311    2.1703 H       1  LIG1        0.0387
     55 H          -9.5994   -0.8894   -0.2322 H       1  LIG1        0.0271
     56 H         -10.9129   -1.7534    0.4895 H       1  LIG1        0.0271
     57 H          -8.2581    1.2678   -1.8554 H       1  LIG1        0.0625
     58 H          -6.5486    3.6371    1.3002 H       1  LIG1        0.0622
     59 H          -8.0973   -1.6048    1.7020 H       1  LIG1        0.0263
     60 H          -8.7125   -2.8934    0.6863 H       1  LIG1        0.0263
     61 H          -5.9304    5.3367   -0.3096 H       1  LIG1        0.0624
     62 H          -9.8402   -2.1369    3.4268 H       1  LIG1        0.0230
     63 H          -8.8450   -3.5470    3.0322 H       1  LIG1        0.0230
     64 H         -10.4796   -3.4129    2.3680 H       1  LIG1        0.0230
     65 H          -6.6161    2.8651   -4.5336 H       1  LIG1        0.0610
     66 H          -8.2043    3.6318   -4.3192 H       1  LIG1        0.0610
     67 H          -7.7118    5.9195   -3.7470 H       1  LIG1        0.0624
     68 H          -6.9181    1.0033   -5.6716 H       1  LIG1        0.0557
     69 H          -8.1965   -0.1300   -5.2425 H       1  LIG1        0.0557
     70 H          -2.7848    6.1722   -4.1785 H       1  LIG1        0.0637
     71 H          -6.6881    7.3909   -5.4257 H       1  LIG1        0.0618
     72 H          -5.8537    0.5717   -3.4026 H       1  LIG1        0.0252
     73 H          -6.0495   -0.9336   -4.3217 H       1  LIG1        0.0252
     74 H          -7.1751   -0.5277   -3.0109 H       1  LIG1        0.0252
     75 H          -1.9276    5.7350   -1.1201 H       1  LIG1        0.1753
     76 H          -4.2212    7.5114   -5.6524 H       1  LIG1        0.0618
     77 H          -0.5163    3.8898   -0.3651 H       1  LIG1        0.0280
     78 H          -0.7921    2.5140    0.7158 H       1  LIG1        0.0280
     79 H           0.0980    3.9384    1.2896 H       1  LIG1        0.0280
     80 H          -1.0980    3.1862    3.6626 H       1  LIG1        0.0309
     81 H          -2.7203    2.4741    3.7432 H       1  LIG1        0.0309
     82 H          -2.3899    4.0308    4.5277 H       1  LIG1        0.0309
@<TRIPOS>BOND
     1     1     5    1
     2     1     4    1
     3     1     2    1
     4     1     3    1
     5     2     6   am
     6     2     7    2
     7     3     8    2
     8     4     9    1
     9     5    10    1
    10     6     8    1
    11     6    11    1
    12     8    12    1
    13     9    10    1
    14    11    13    1
    15    12    14    1
    16    13    15   ar
    17    13    16   ar
    18    14    17    1
    19    15    18   ar
    20    16    19   ar
    21    17    20    1
    22    18    21   ar
    23    18    22    1
    24    19    21   ar
    25    21    23    1
    26    22    24    1
    27    23    26   ar
    28    23    25   ar
    29    24    27    1
    30    25    29   ar
    31    25    28    1
    32    26    30   ar
    33    27    31    1
    34    28    34    2
    35    28    33    2
    36    28    32    1
    37    29    35   ar
    38    30    35   ar
    39    32    36    1
    40    36    37   ar
    41    36    38   ar
    42    37    39   ar
    43    37    40    1
    44    38    41   ar
    45    39    41   ar
    46    39    42    1
    47     4    43    1
    48     4    44    1
    49     5    45    1
    50     5    46    1
    51     9    47    1
    52     9    48    1
    53    10    49    1
    54    10    50    1
    55    11    51    1
    56    11    52    1
    57    12    53    1
    58    12    54    1
    59    14    55    1
    60    14    56    1
    61    15    57    1
    62    16    58    1
    63    17    59    1
    64    17    60    1
    65    19    61    1
    66    20    62    1
    67    20    63    1
    68    20    64    1
    69    22    65    1
    70    22    66    1
    71    26    67    1
    72    27    68    1
    73    27    69    1
    74    29    70    1
    75    30    71    1
    76    31    72    1
    77    31    73    1
    78    31    74    1
    79    32    75    1
    80    35    76    1
    81    40    77    1
    82    40    78    1
    83    40    79    1
    84    42    80    1
    85    42    81    1
    86    42    82    1
@<TRIPOS>MOLECULE
02228316B
 82 86 0 0 0
SMALL
GASTEIGER

@<TRIPOS>ATOM
      1 C         -11.1846   -0.3552    0.1713 C.3     1  LIG1        0.2491
      2 C          -9.6896   -0.3644   -0.0824 C.2     1  LIG1        0.3556
      3 N         -11.4135    0.9146    0.9075 N.2     1  LIG1       -0.0687
      4 C         -12.0270   -0.3868   -1.1066 C.3     1  LIG1        0.0059
      5 C         -11.6307   -1.5434    1.0297 C.3     1  LIG1        0.0059
      6 N          -9.1981    0.7362    0.5598 N.am    1  LIG1       -0.1529
      7 O          -9.0629   -1.1944   -0.7222 O.2     1  LIG1       -0.2422
      8 C         -10.2288    1.4150    1.0907 C.cat   1  LIG1        0.2916
      9 C         -12.8082   -1.6962   -1.0363 C.3     1  LIG1       -0.0481
     10 C         -12.9818   -1.9412    0.4526 C.3     1  LIG1       -0.0481
     11 C          -7.7757    1.0228    0.6426 C.3     1  LIG1        0.1137
     12 C         -10.0420    2.7143    1.8360 C.3     1  LIG1        0.0509
     13 C          -7.3172    2.1325   -0.2755 C.ar    1  LIG1       -0.0073
     14 C         -10.6901    2.6836    3.2207 C.3     1  LIG1       -0.0424
     15 C          -7.6500    2.1410   -1.6337 C.ar    1  LIG1       -0.0491
     16 C          -6.4851    3.1458    0.2040 C.ar    1  LIG1       -0.0544
     17 C         -10.0030    1.6938    4.1640 C.3     1  LIG1       -0.0554
     18 C          -7.1431    3.1211   -2.5182 C.ar    1  LIG1       -0.0138
     19 C          -5.9596    4.1090   -0.6638 C.ar    1  LIG1       -0.0533
     20 C         -10.6058    1.7491    5.5591 C.3     1  LIG1       -0.0653
     21 C          -6.2073    4.0763   -2.0477 C.ar    1  LIG1       -0.0106
     22 C          -7.7037    3.1264   -3.9258 C.3     1  LIG1        0.0732
     23 C          -5.5117    5.0457   -2.9264 C.ar    1  LIG1        0.0091
     24 O          -8.6541    4.1764   -4.1436 O.3     1  LIG1       -0.3754
     25 C          -4.1233    5.0843   -3.1837 C.ar    1  LIG1        0.1162
     26 C          -6.2925    6.0418   -3.5567 C.ar    1  LIG1       -0.0521
     27 C          -9.8863    4.0544   -3.4333 C.3     1  LIG1        0.0453
     28 S          -2.8863    4.0142   -2.4497 S.O2    1  LIG1        0.0741
     29 C          -3.5802    6.0808   -4.0306 C.ar    1  LIG1       -0.0345
     30 C          -5.7540    6.9931   -4.4284 C.ar    1  LIG1       -0.0611
     31 C          -9.9193    4.9909   -2.2351 C.3     1  LIG1       -0.0416
     32 N          -2.5569    2.9089   -3.7022 N.pl3   1  LIG1       -0.1965
     33 O          -1.7254    4.8413   -2.1842 O.2     1  LIG1       -0.1499
     34 O          -3.4469    3.2020   -1.3943 O.2     1  LIG1       -0.1499
     35 C          -4.3916    7.0136   -4.6664 C.ar    1  LIG1       -0.0599
     36 C          -1.3920    3.1143   -4.4344 C.ar    1  LIG1        0.1837
     37 C          -1.3248    3.6601   -5.7388 C.ar    1  LIG1        0.0342
     38 N          -0.2004    2.7008   -4.0039 N.ar    1  LIG1       -0.0614
     39 C           0.0281    3.6818   -6.0034 C.ar    1  LIG1        0.1390
     40 C          -2.4292    4.0882   -6.6235 C.3     1  LIG1       -0.0330
     41 O           0.7020    3.1086   -4.9701 O.2     1  LIG1       -0.3578
     42 C           0.8515    4.1603   -7.1293 C.3     1  LIG1       -0.0034
     43 H         -11.4280   -0.3418   -2.0220 H       1  LIG1        0.0316
     44 H         -12.7315    0.4535   -1.1342 H       1  LIG1        0.0316
     45 H         -11.7090   -1.3040    2.0955 H       1  LIG1        0.0316
     46 H         -10.9327   -2.3843    0.9314 H       1  LIG1        0.0316
     47 H         -12.2224   -2.5072   -1.4856 H       1  LIG1        0.0267
     48 H         -13.7653   -1.6365   -1.5622 H       1  LIG1        0.0267
     49 H         -13.7715   -1.2962    0.8558 H       1  LIG1        0.0267
     50 H         -13.2392   -2.9804    0.6772 H       1  LIG1        0.0267
     51 H          -7.2037    0.1191    0.4001 H       1  LIG1        0.0783
     52 H          -7.5519    1.2760    1.6849 H       1  LIG1        0.0783
     53 H         -10.5202    3.4980    1.2364 H       1  LIG1        0.0387
     54 H          -8.9886    2.9845    1.9307 H       1  LIG1        0.0387
     55 H         -11.7543    2.4330    3.1374 H       1  LIG1        0.0271
     56 H         -10.6347    3.6914    3.6506 H       1  LIG1        0.0271
     57 H          -8.3189    1.3732   -2.0221 H       1  LIG1        0.0625
     58 H          -6.1969    3.1809    1.2526 H       1  LIG1        0.0622
     59 H          -8.9319    1.9182    4.2260 H       1  LIG1        0.0263
     60 H         -10.0988    0.6730    3.7769 H       1  LIG1        0.0263
     61 H          -5.2883    4.8614   -0.2504 H       1  LIG1        0.0624
     62 H         -10.4855    2.7445    5.9984 H       1  LIG1        0.0230
     63 H         -10.1102    1.0266    6.2152 H       1  LIG1        0.0230
     64 H         -11.6738    1.5103    5.5352 H       1  LIG1        0.0230
     65 H          -8.1692    2.1667   -4.1810 H       1  LIG1        0.0610
     66 H          -6.8879    3.2597   -4.6449 H       1  LIG1        0.0610
     67 H          -7.3641    6.0866   -3.3704 H       1  LIG1        0.0624
     68 H         -10.0947    3.0195   -3.1411 H       1  LIG1        0.0557
     69 H         -10.6776    4.3615   -4.1246 H       1  LIG1        0.0557
     70 H          -2.5049    6.1374   -4.1968 H       1  LIG1        0.0637
     71 H          -6.4061    7.7199   -4.9053 H       1  LIG1        0.0618
     72 H          -9.2067    4.6889   -1.4643 H       1  LIG1        0.0252
     73 H         -10.9158    5.0074   -1.7832 H       1  LIG1        0.0252
     74 H          -9.6531    6.0112   -2.5315 H       1  LIG1        0.0252
     75 H          -2.5478    2.0067   -3.2227 H       1  LIG1        0.1753
     76 H          -3.9582    7.7608   -5.3266 H       1  LIG1        0.0618
     77 H          -3.4077    3.8570   -6.1919 H       1  LIG1        0.0280
     78 H          -2.3659    3.5694   -7.5856 H       1  LIG1        0.0280
     79 H          -2.3809    5.1652   -6.8106 H       1  LIG1        0.0280
     80 H           0.2262    4.5321   -7.9465 H       1  LIG1        0.0309
     81 H           1.4777    3.3528   -7.5204 H       1  LIG1        0.0309
     82 H           1.5029    4.9773   -6.8040 H       1  LIG1        0.0309
@<TRIPOS>BOND
     1     1     5    1
     2     1     4    1
     3     1     2    1
     4     1     3    1
     5     2     6   am
     6     2     7    2
     7     3     8    2
     8     4     9    1
     9     5    10    1
    10     6     8    1
    11     6    11    1
    12     8    12    1
    13     9    10    1
    14    11    13    1
    15    12    14    1
    16    13    15   ar
    17    13    16   ar
    18    14    17    1
    19    15    18   ar
    20    16    19   ar
    21    17    20    1
    22    18    21   ar
    23    18    22    1
    24    19    21   ar
    25    21    23    1
    26    22    24    1
    27    23    26   ar
    28    23    25   ar
    29    24    27    1
    30    25    29   ar
    31    25    28    1
    32    26    30   ar
    33    27    31    1
    34    28    34    2
    35    28    33    2
    36    28    32    1
    37    29    35   ar
    38    30    35   ar
    39    32    36    1
    40    36    37   ar
    41    36    38   ar
    42    37    39   ar
    43    37    40    1
    44    38    41   ar
    45    39    41   ar
    46    39    42    1
    47     4    43    1
    48     4    44    1
    49     5    45    1
    50     5    46    1
    51     9    47    1
    52     9    48    1
    53    10    49    1
    54    10    50    1
    55    11    51    1
    56    11    52    1
    57    12    53    1
    58    12    54    1
    59    14    55    1
    60    14    56    1
    61    15    57    1
    62    16    58    1
    63    17    59    1
    64    17    60    1
    65    19    61    1
    66    20    62    1
    67    20    63    1
    68    20    64    1
    69    22    65    1
    70    22    66    1
    71    26    67    1
    72    27    68    1
    73    27    69    1
    74    29    70    1
    75    30    71    1
    76    31    72    1
    77    31    73    1
    78    31    74    1
    79    32    75    1
    80    35    76    1
    81    40    77    1
    82    40    78    1
    83    40    79    1
    84    42    80    1
    85    42    81    1
    86    42    82    1
@<TRIPOS>MOLECULE
02228316B
 82 86 0 0 0
SMALL
GASTEIGER

@<TRIPOS>ATOM
      1 C         -11.2934    1.6120    2.0987 C.3     1  LIG1        0.2491
      2 C          -9.8416    1.9861    1.8949 C.2     1  LIG1        0.3556
      3 N         -11.3588    0.2072    1.6219 N.2     1  LIG1       -0.0687
      4 C         -11.7624    1.7111    3.5513 C.3     1  LIG1        0.0059
      5 C         -12.2363    2.4835    1.2620 C.3     1  LIG1        0.0059
      6 N          -9.3206    1.0050    1.0984 N.am    1  LIG1       -0.1529
      7 O          -9.2610    2.9399    2.3884 O.2     1  LIG1       -0.2422
      8 C         -10.2057   -0.0118    1.0708 C.cat   1  LIG1        0.2916
      9 C         -12.8601    2.7710    3.5407 C.3     1  LIG1       -0.0481
     10 C         -13.4584    2.6659    2.1483 C.3     1  LIG1       -0.0481
     11 C          -7.9225    0.9910    0.7126 C.3     1  LIG1        0.1137
     12 C          -9.8518   -1.3382    0.4329 C.3     1  LIG1        0.0509
     13 C          -7.5574    2.0857   -0.2609 C.ar    1  LIG1       -0.0073
     14 C         -10.8915   -2.4447    0.6233 C.3     1  LIG1       -0.0424
     15 C          -7.8055    1.9553   -1.6326 C.ar    1  LIG1       -0.0491
     16 C          -6.9521    3.2568    0.1932 C.ar    1  LIG1       -0.0544
     17 C         -12.1251   -2.2786   -0.2666 C.3     1  LIG1       -0.0554
     18 C          -7.3473    2.9192   -2.5617 C.ar    1  LIG1       -0.0138
     19 C          -6.5059    4.2183   -0.7127 C.ar    1  LIG1       -0.0533
     20 C         -13.1098   -3.4207   -0.0599 C.3     1  LIG1       -0.0653
     21 C          -6.5982    4.0292   -2.1003 C.ar    1  LIG1       -0.0106
     22 C          -7.7336    2.7295   -4.0135 C.3     1  LIG1        0.0732
     23 C          -5.9136    4.9912   -2.9915 C.ar    1  LIG1        0.0091
     24 O          -6.6281    2.5629   -4.8917 O.3     1  LIG1       -0.3754
     25 C          -4.5098    5.1382   -3.0988 C.ar    1  LIG1        0.1162
     26 C          -6.7062    5.8467   -3.7869 C.ar    1  LIG1       -0.0521
     27 C          -6.2521    1.2082   -5.1098 C.3     1  LIG1        0.0453
     28 S          -3.3145    4.1929   -2.1627 S.O2    1  LIG1        0.0741
     29 C          -3.9516    6.0545   -4.0164 C.ar    1  LIG1       -0.0345
     30 C          -6.1455    6.7534   -4.6919 C.ar    1  LIG1       -0.0611
     31 C          -5.1728    0.7804   -4.1365 C.3     1  LIG1       -0.0416
     32 N          -2.7929    5.3211   -1.0058 N.pl3   1  LIG1       -0.1965
     33 O          -3.9058    3.0452   -1.5132 O.2     1  LIG1       -0.1499
     34 O          -2.1536    3.9998   -3.0123 O.2     1  LIG1       -0.1499
     35 C          -4.7670    6.8516   -4.8134 C.ar    1  LIG1       -0.0599
     36 C          -3.2552    5.2257    0.3018 C.ar    1  LIG1        0.1837
     37 C          -2.9230    4.2463    1.2726 C.ar    1  LIG1        0.0342
     38 N          -4.0416    6.1752    0.8126 N.ar    1  LIG1       -0.0614
     39 C          -3.6877    4.6057    2.3640 C.ar    1  LIG1        0.1390
     40 C          -2.0247    3.0781    1.1482 C.3     1  LIG1       -0.0330
     41 O          -4.3461    5.7628    2.0945 O.2     1  LIG1       -0.3578
     42 C          -3.9423    4.0085    3.6888 C.3     1  LIG1       -0.0034
     43 H         -10.9652    1.9887    4.2490 H       1  LIG1        0.0316
     44 H         -12.1802    0.7573    3.8960 H       1  LIG1        0.0316
     45 H         -12.5054    2.0314    0.3005 H       1  LIG1        0.0316
     46 H         -11.7835    3.4609    1.0533 H       1  LIG1        0.0316
     47 H         -12.4221    3.7656    3.6875 H       1  LIG1        0.0267
     48 H         -13.6021    2.6064    4.3271 H       1  LIG1        0.0267
     49 H         -14.1109    1.7874    2.0799 H       1  LIG1        0.0267
     50 H         -14.0403    3.5497    1.8746 H       1  LIG1        0.0267
     51 H          -7.6503    0.0274    0.2706 H       1  LIG1        0.0783
     52 H          -7.3214    1.0906    1.6251 H       1  LIG1        0.0783
     53 H          -8.9162   -1.6808    0.8909 H       1  LIG1        0.0387
     54 H          -9.6535   -1.1732   -0.6321 H       1  LIG1        0.0387
     55 H         -11.1950   -2.5001    1.6760 H       1  LIG1        0.0271
     56 H         -10.4166   -3.4044    0.3829 H       1  LIG1        0.0271
     57 H          -8.3412    1.0784   -1.9926 H       1  LIG1        0.0625
     58 H          -6.7978    3.4277    1.2570 H       1  LIG1        0.0622
     59 H         -11.8239   -2.2498   -1.3199 H       1  LIG1        0.0263
     60 H         -12.6348   -1.3340   -0.0519 H       1  LIG1        0.0263
     61 H          -6.0414    5.1178   -0.3208 H       1  LIG1        0.0624
     62 H         -12.6577   -4.3813   -0.3264 H       1  LIG1        0.0230
     63 H         -13.9958   -3.2765   -0.6860 H       1  LIG1        0.0230
     64 H         -13.4369   -3.4732    0.9838 H       1  LIG1        0.0230
     65 H          -8.2835    3.6188   -4.3410 H       1  LIG1        0.0610
     66 H          -8.4542    1.9101   -4.1334 H       1  LIG1        0.0610
     67 H          -7.7915    5.8046   -3.7100 H       1  LIG1        0.0624
     68 H          -5.8520    1.1511   -6.1273 H       1  LIG1        0.0557
     69 H          -7.1160    0.5328   -5.0698 H       1  LIG1        0.0557
     70 H          -2.8716    6.1499   -4.1174 H       1  LIG1        0.0637
     71 H          -6.7914    7.3769   -5.3045 H       1  LIG1        0.0618
     72 H          -4.3397    1.4903   -4.1524 H       1  LIG1        0.0252
     73 H          -4.7970   -0.2143   -4.3928 H       1  LIG1        0.0252
     74 H          -5.5499    0.7478   -3.1113 H       1  LIG1        0.0252
     75 H          -1.7813    5.3924   -1.0944 H       1  LIG1        0.1753
     76 H          -4.3263    7.5472   -5.5225 H       1  LIG1        0.0618
     77 H          -1.3805    3.1586    0.2678 H       1  LIG1        0.0280
     78 H          -2.6052    2.1543    1.0689 H       1  LIG1        0.0280
     79 H          -1.3734    3.0014    2.0252 H       1  LIG1        0.0280
     80 H          -3.1058    3.3792    4.0067 H       1  LIG1        0.0309
     81 H          -4.8426    3.3867    3.6525 H       1  LIG1        0.0309
     82 H          -4.0915    4.7823    4.4478 H       1  LIG1        0.0309
@<TRIPOS>BOND
     1     1     5    1
     2     1     4    1
     3     1     2    1
     4     1     3    1
     5     2     6   am
     6     2     7    2
     7     3     8    2
     8     4     9    1
     9     5    10    1
    10     6     8    1
    11     6    11    1
    12     8    12    1
    13     9    10    1
    14    11    13    1
    15    12    14    1
    16    13    15   ar
    17    13    16   ar
    18    14    17    1
    19    15    18   ar
    20    16    19   ar
    21    17    20    1
    22    18    21   ar
    23    18    22    1
    24    19    21   ar
    25    21    23    1
    26    22    24    1
    27    23    26   ar
    28    23    25   ar
    29    24    27    1
    30    25    29   ar
    31    25    28    1
    32    26    30   ar
    33    27    31    1
    34    28    34    2
    35    28    33    2
    36    28    32    1
    37    29    35   ar
    38    30    35   ar
    39    32    36    1
    40    36    37   ar
    41    36    38   ar
    42    37    39   ar
    43    37    40    1
    44    38    41   ar
    45    39    41   ar
    46    39    42    1
    47     4    43    1
    48     4    44    1
    49     5    45    1
    50     5    46    1
    51     9    47    1
    52     9    48    1
    53    10    49    1
    54    10    50    1
    55    11    51    1
    56    11    52    1
    57    12    53    1
    58    12    54    1
    59    14    55    1
    60    14    56    1
    61    15    57    1
    62    16    58    1
    63    17    59    1
    64    17    60    1
    65    19    61    1
    66    20    62    1
    67    20    63    1
    68    20    64    1
    69    22    65    1
    70    22    66    1
    71    26    67    1
    72    27    68    1
    73    27    69    1
    74    29    70    1
    75    30    71    1
    76    31    72    1
    77    31    73    1
    78    31    74    1
    79    32    75    1
    80    35    76    1
    81    40    77    1
    82    40    78    1
    83    40    79    1
    84    42    80    1
    85    42    81    1
    86    42    82    1
@<TRIPOS>MOLECULE
02228316B
 82 86 0 0 0
SMALL
GASTEIGER

@<TRIPOS>ATOM
      1 C         -11.4412    0.4609    0.2314 C.3     1  LIG1        0.2491
      2 C         -10.2955    1.4433    0.0803 C.2     1  LIG1        0.3556
      3 N         -10.9430   -0.4776    1.2638 N.2     1  LIG1       -0.0687
      4 C         -12.7654    1.1020    0.6481 C.3     1  LIG1        0.0059
      5 C         -11.7130   -0.3191   -1.0642 C.3     1  LIG1        0.0059
      6 N          -9.2015    0.8073    0.6013 N.am    1  LIG1       -0.1529
      7 O         -10.3803    2.5658   -0.3896 O.2     1  LIG1       -0.2422
      8 C          -9.6747   -0.2058    1.3606 C.cat   1  LIG1        0.2916
      9 C         -13.6911    0.9019   -0.5492 C.3     1  LIG1       -0.0481
     10 C         -13.2307   -0.4194   -1.1381 C.3     1  LIG1       -0.0481
     11 C          -7.8780    1.4012    0.7383 C.3     1  LIG1        0.1137
     12 C          -8.8101   -1.0255    2.2986 C.3     1  LIG1        0.0509
     13 C          -7.3506    2.3285   -0.3297 C.ar    1  LIG1       -0.0073
     14 C          -8.1877   -0.2240    3.4434 C.3     1  LIG1       -0.0424
     15 C          -7.6584    2.2138   -1.6886 C.ar    1  LIG1       -0.0491
     16 C          -6.4546    3.3325    0.0583 C.ar    1  LIG1       -0.0544
     17 C          -7.8812   -1.0559    4.6917 C.3     1  LIG1       -0.0554
     18 C          -7.1511    3.1272   -2.6435 C.ar    1  LIG1       -0.0138
     19 C          -5.8997    4.2069   -0.8774 C.ar    1  LIG1       -0.0533
     20 C          -7.0244   -2.2822    4.4161 C.3     1  LIG1       -0.0653
     21 C          -6.2053    4.1092   -2.2446 C.ar    1  LIG1       -0.0106
     22 C          -7.7462    3.0505   -4.0357 C.3     1  LIG1        0.0732
     23 C          -5.5691    5.0503   -3.1906 C.ar    1  LIG1        0.0091
     24 O          -7.2497    1.9444   -4.7861 O.3     1  LIG1       -0.3754
     25 C          -4.2010    5.0674   -3.5362 C.ar    1  LIG1        0.1162
     26 C          -6.3876    6.0289   -3.7981 C.ar    1  LIG1       -0.0521
     27 C          -7.9021    1.8853   -6.0572 C.3     1  LIG1        0.0453
     28 S          -2.9357    4.1408   -2.6581 S.O2    1  LIG1        0.0741
     29 C          -3.7215    5.9408   -4.5361 C.ar    1  LIG1       -0.0345
     30 C          -5.9041    6.9073   -4.7716 C.ar    1  LIG1       -0.0611
     31 C          -7.2850    0.7840   -6.8927 C.3     1  LIG1       -0.0416
     32 N          -2.5794    5.3036   -1.4634 N.pl3   1  LIG1       -0.1965
     33 O          -3.4782    2.9432   -2.0732 O.2     1  LIG1       -0.1499
     34 O          -1.7747    4.0910   -3.5328 O.2     1  LIG1       -0.1499
     35 C          -4.5734    6.8475   -5.1577 C.ar    1  LIG1       -0.0599
     36 C          -1.5382    5.0135   -0.5825 C.ar    1  LIG1        0.1837
     37 C          -0.1898    5.4397   -0.7224 C.ar    1  LIG1        0.0342
     38 N          -1.7552    4.4390    0.6007 N.ar    1  LIG1       -0.0614
     39 C           0.3882    5.0732    0.4750 C.ar    1  LIG1        0.1390
     40 C           0.4678    6.1049   -1.8699 C.3     1  LIG1       -0.0330
     41 O          -0.5414    4.4695    1.2614 O.2     1  LIG1       -0.3578
     42 C           1.7374    5.2144    1.0553 C.3     1  LIG1       -0.0034
     43 H         -12.6783    2.1653    0.8946 H       1  LIG1        0.0316
     44 H         -13.1895    0.5958    1.5237 H       1  LIG1        0.0316
     45 H         -11.2554   -1.3147   -1.0769 H       1  LIG1        0.0316
     46 H         -11.3383    0.2278   -1.9379 H       1  LIG1        0.0316
     47 H         -13.5463    1.7090   -1.2778 H       1  LIG1        0.0267
     48 H         -14.7460    0.8867   -0.2618 H       1  LIG1        0.0267
     49 H         -13.5868   -1.2541   -0.5222 H       1  LIG1        0.0267
     50 H         -13.5875   -0.5717   -2.1608 H       1  LIG1        0.0267
     51 H          -7.1536    0.5849    0.8415 H       1  LIG1        0.0783
     52 H          -7.9031    1.9494    1.6881 H       1  LIG1        0.0783
     53 H          -8.0298   -1.5179    1.7084 H       1  LIG1        0.0387
     54 H          -9.4478   -1.8165    2.7137 H       1  LIG1        0.0387
     55 H          -8.8442    0.6065    3.7294 H       1  LIG1        0.0271
     56 H          -7.2468    0.2244    3.1052 H       1  LIG1        0.0271
     57 H          -8.3451    1.4386   -2.0249 H       1  LIG1        0.0625
     58 H          -6.1619    3.4402    1.1013 H       1  LIG1        0.0622
     59 H          -8.8180   -1.3672    5.1678 H       1  LIG1        0.0263
     60 H          -7.3581   -0.4158    5.4131 H       1  LIG1        0.0263
     61 H          -5.2042    4.9624   -0.5180 H       1  LIG1        0.0624
     62 H          -7.5731   -3.0255    3.8297 H       1  LIG1        0.0230
     63 H          -6.7318   -2.7558    5.3588 H       1  LIG1        0.0230
     64 H          -6.1134   -2.0154    3.8718 H       1  LIG1        0.0230
     65 H          -7.5749    3.9630   -4.6076 H       1  LIG1        0.0610
     66 H          -8.8367    2.9594   -3.9324 H       1  LIG1        0.0610
     67 H          -7.4395    6.0972   -3.5179 H       1  LIG1        0.0624
     68 H          -7.7917    2.8428   -6.5801 H       1  LIG1        0.0557
     69 H          -8.9696    1.6846   -5.9094 H       1  LIG1        0.0557
     70 H          -2.6712    5.9343   -4.8261 H       1  LIG1        0.0637
     71 H          -6.5750    7.6281   -5.2327 H       1  LIG1        0.0618
     72 H          -6.2188    0.9745   -7.0523 H       1  LIG1        0.0252
     73 H          -7.7791    0.7170   -7.8668 H       1  LIG1        0.0252
     74 H          -7.3695   -0.1815   -6.3853 H       1  LIG1        0.0252
     75 H          -2.4355    6.1889   -1.9417 H       1  LIG1        0.1753
     76 H          -4.1942    7.5180   -5.9248 H       1  LIG1        0.0618
     77 H          -0.2595    6.5082   -2.5805 H       1  LIG1        0.0280
     78 H           1.1022    5.3907   -2.4053 H       1  LIG1        0.0280
     79 H           1.0963    6.9349   -1.5318 H       1  LIG1        0.0280
     80 H           2.4656    5.5187    0.2968 H       1  LIG1        0.0309
     81 H           2.0758    4.2685    1.4885 H       1  LIG1        0.0309
     82 H           1.7337    5.9737    1.8439 H       1  LIG1        0.0309
@<TRIPOS>BOND
     1     1     5    1
     2     1     4    1
     3     1     2    1
     4     1     3    1
     5     2     6   am
     6     2     7    2
     7     3     8    2
     8     4     9    1
     9     5    10    1
    10     6     8    1
    11     6    11    1
    12     8    12    1
    13     9    10    1
    14    11    13    1
    15    12    14    1
    16    13    15   ar
    17    13    16   ar
    18    14    17    1
    19    15    18   ar
    20    16    19   ar
    21    17    20    1
    22    18    21   ar
    23    18    22    1
    24    19    21   ar
    25    21    23    1
    26    22    24    1
    27    23    26   ar
    28    23    25   ar
    29    24    27    1
    30    25    29   ar
    31    25    28    1
    32    26    30   ar
    33    27    31    1
    34    28    34    2
    35    28    33    2
    36    28    32    1
    37    29    35   ar
    38    30    35   ar
    39    32    36    1
    40    36    37   ar
    41    36    38   ar
    42    37    39   ar
    43    37    40    1
    44    38    41   ar
    45    39    41   ar
    46    39    42    1
    47     4    43    1
    48     4    44    1
    49     5    45    1
    50     5    46    1
    51     9    47    1
    52     9    48    1
    53    10    49    1
    54    10    50    1
    55    11    51    1
    56    11    52    1
    57    12    53    1
    58    12    54    1
    59    14    55    1
    60    14    56    1
    61    15    57    1
    62    16    58    1
    63    17    59    1
    64    17    60    1
    65    19    61    1
    66    20    62    1
    67    20    63    1
    68    20    64    1
    69    22    65    1
    70    22    66    1
    71    26    67    1
    72    27    68    1
    73    27    69    1
    74    29    70    1
    75    30    71    1
    76    31    72    1
    77    31    73    1
    78    31    74    1
    79    32    75    1
    80    35    76    1
    81    40    77    1
    82    40    78    1
    83    40    79    1
    84    42    80    1
    85    42    81    1
    86    42    82    1
@<TRIPOS>MOLECULE
02228316B
 82 86 0 0 0
SMALL
GASTEIGER

@<TRIPOS>ATOM
      1 C         -11.6549    0.5670    0.4834 C.3     1  LIG1        0.2491
      2 C         -10.4214    1.3899    0.7931 C.2     1  LIG1        0.3556
      3 N         -11.1320   -0.8129    0.3096 N.2     1  LIG1       -0.0687
      4 C         -12.6977    0.6029    1.6043 C.3     1  LIG1        0.0059
      5 C         -12.3570    1.0198   -0.7985 C.3     1  LIG1        0.0059
      6 N          -9.3651    0.5359    0.6404 N.am    1  LIG1       -0.1529
      7 O         -10.3914    2.5631    1.1235 O.2     1  LIG1       -0.2422
      8 C          -9.8451   -0.7046    0.4344 C.cat   1  LIG1        0.2916
      9 C         -13.9278    1.2526    0.9783 C.3     1  LIG1       -0.0481
     10 C         -13.8393    0.8632   -0.4872 C.3     1  LIG1       -0.0481
     11 C          -7.9937    0.9509    0.8679 C.3     1  LIG1        0.1137
     12 C          -8.9131   -1.8918    0.3403 C.3     1  LIG1        0.0509
     13 C          -7.4512    1.9200   -0.1572 C.ar    1  LIG1       -0.0073
     14 C          -9.6100   -3.2497    0.2500 C.3     1  LIG1       -0.0424
     15 C          -7.8663    1.9506   -1.4926 C.ar    1  LIG1       -0.0491
     16 C          -6.4386    2.7905    0.2220 C.ar    1  LIG1       -0.0544
     17 C         -10.2138   -3.6875    1.5881 C.3     1  LIG1       -0.0554
     18 C          -7.3125    2.8503   -2.4449 C.ar    1  LIG1       -0.0138
     19 C          -5.9035    3.6956   -0.6952 C.ar    1  LIG1       -0.0533
     20 C         -10.8732   -5.0535    1.4796 C.3     1  LIG1       -0.0653
     21 C          -6.3101    3.7735   -2.0396 C.ar    1  LIG1       -0.0106
     22 C          -7.8570    2.7382   -3.8606 C.3     1  LIG1        0.0732
     23 C          -5.7538    4.8533   -2.9142 C.ar    1  LIG1        0.0091
     24 O          -7.1903    1.7695   -4.6649 O.3     1  LIG1       -0.3754
     25 C          -4.3889    5.1477   -3.1527 C.ar    1  LIG1        0.1162
     26 C          -6.6796    5.7310   -3.5304 C.ar    1  LIG1       -0.0521
     27 C          -7.5207    0.4043   -4.4327 C.3     1  LIG1        0.0453
     28 S          -3.0306    4.3661   -2.3026 S.O2    1  LIG1        0.0741
     29 C          -4.0087    6.1441   -4.0820 C.ar    1  LIG1       -0.0345
     30 C          -6.2988    6.7316   -4.4321 C.ar    1  LIG1       -0.0611
     31 C          -8.9804    0.0736   -4.7034 C.3     1  LIG1       -0.0416
     32 N          -2.8226    5.2799   -0.8525 N.pl3   1  LIG1       -0.1965
     33 O          -3.3817    3.0136   -1.9273 O.2     1  LIG1       -0.1499
     34 O          -1.8173    4.5844   -3.0688 O.2     1  LIG1       -0.1499
     35 C          -4.9605    6.9219   -4.7283 C.ar    1  LIG1       -0.0599
     36 C          -3.0911    6.6587   -0.8919 C.ar    1  LIG1        0.1837
     37 C          -4.1944    7.3591   -0.3287 C.ar    1  LIG1        0.0342
     38 N          -2.1760    7.4993   -1.3775 N.ar    1  LIG1       -0.0614
     39 C          -3.9024    8.6812   -0.5957 C.ar    1  LIG1        0.1390
     40 C          -5.3784    6.8623    0.4048 C.3     1  LIG1       -0.0330
     41 O          -2.7019    8.7653   -1.2222 O.2     1  LIG1       -0.3578
     42 C          -4.5831    9.9597   -0.3104 C.3     1  LIG1       -0.0034
     43 H         -12.3699    1.1657    2.4848 H       1  LIG1        0.0316
     44 H         -12.9510   -0.4101    1.9397 H       1  LIG1        0.0316
     45 H         -12.0726    0.4339   -1.6792 H       1  LIG1        0.0316
     46 H         -12.1383    2.0723   -1.0172 H       1  LIG1        0.0316
     47 H         -13.8701    2.3427    1.0826 H       1  LIG1        0.0267
     48 H         -14.8572    0.9144    1.4453 H       1  LIG1        0.0267
     49 H         -14.1470   -0.1806   -0.6223 H       1  LIG1        0.0267
     50 H         -14.4664    1.4919   -1.1255 H       1  LIG1        0.0267
     51 H          -7.3287    0.0836    0.8984 H       1  LIG1        0.0783
     52 H          -7.9725    1.4260    1.8569 H       1  LIG1        0.0783
     53 H          -8.2362   -1.8856    1.2018 H       1  LIG1        0.0387
     54 H          -8.3005   -1.7464   -0.5580 H       1  LIG1        0.0387
     55 H          -8.8688   -3.9968   -0.0606 H       1  LIG1        0.0271
     56 H         -10.3856   -3.2321   -0.5248 H       1  LIG1        0.0271
     57 H          -8.6451    1.2632   -1.8171 H       1  LIG1        0.0625
     58 H          -6.0509    2.7861    1.2385 H       1  LIG1        0.0622
     59 H         -10.9591   -2.9619    1.9305 H       1  LIG1        0.0263
     60 H          -9.4302   -3.7283    2.3539 H       1  LIG1        0.0263
     61 H          -5.1245    4.3426   -0.3194 H       1  LIG1        0.0624
     62 H         -11.6767   -5.0432    0.7362 H       1  LIG1        0.0230
     63 H         -11.3051   -5.3434    2.4426 H       1  LIG1        0.0230
     64 H         -10.1457   -5.8184    1.1900 H       1  LIG1        0.0230
     65 H          -7.7611    3.6786   -4.4012 H       1  LIG1        0.0610
     66 H          -8.9385    2.5621   -3.8370 H       1  LIG1        0.0610
     67 H          -7.7441    5.6327   -3.3144 H       1  LIG1        0.0624
     68 H          -7.2246    0.1023   -3.4243 H       1  LIG1        0.0557
     69 H          -6.9035   -0.1802   -5.1236 H       1  LIG1        0.0557
     70 H          -2.9562    6.3435   -4.2865 H       1  LIG1        0.0637
     71 H          -7.0542    7.3538   -4.9062 H       1  LIG1        0.0618
     72 H          -9.6383    0.5011   -3.9409 H       1  LIG1        0.0252
     73 H          -9.1347   -1.0098   -4.6977 H       1  LIG1        0.0252
     74 H          -9.2998    0.4744   -5.6704 H       1  LIG1        0.0252
     75 H          -1.8033    5.2217   -0.7539 H       1  LIG1        0.1753
     76 H          -4.6518    7.6877   -5.4355 H       1  LIG1        0.0618
     77 H          -5.1129    6.0400    1.0743 H       1  LIG1        0.0280
     78 H          -6.1520    6.5335   -0.2941 H       1  LIG1        0.0280
     79 H          -5.8199    7.6466    1.0295 H       1  LIG1        0.0280
     80 H          -5.6608    9.8134   -0.1860 H       1  LIG1        0.0309
     81 H          -4.4348   10.6730   -1.1267 H       1  LIG1        0.0309
     82 H          -4.1906   10.4002    0.6110 H       1  LIG1        0.0309
@<TRIPOS>BOND
     1     1     5    1
     2     1     4    1
     3     1     2    1
     4     1     3    1
     5     2     6   am
     6     2     7    2
     7     3     8    2
     8     4     9    1
     9     5    10    1
    10     6     8    1
    11     6    11    1
    12     8    12    1
    13     9    10    1
    14    11    13    1
    15    12    14    1
    16    13    15   ar
    17    13    16   ar
    18    14    17    1
    19    15    18   ar
    20    16    19   ar
    21    17    20    1
    22    18    21   ar
    23    18    22    1
    24    19    21   ar
    25    21    23    1
    26    22    24    1
    27    23    26   ar
    28    23    25   ar
    29    24    27    1
    30    25    29   ar
    31    25    28    1
    32    26    30   ar
    33    27    31    1
    34    28    34    2
    35    28    33    2
    36    28    32    1
    37    29    35   ar
    38    30    35   ar
    39    32    36    1
    40    36    37   ar
    41    36    38   ar
    42    37    39   ar
    43    37    40    1
    44    38    41   ar
    45    39    41   ar
    46    39    42    1
    47     4    43    1
    48     4    44    1
    49     5    45    1
    50     5    46    1
    51     9    47    1
    52     9    48    1
    53    10    49    1
    54    10    50    1
    55    11    51    1
    56    11    52    1
    57    12    53    1
    58    12    54    1
    59    14    55    1
    60    14    56    1
    61    15    57    1
    62    16    58    1
    63    17    59    1
    64    17    60    1
    65    19    61    1
    66    20    62    1
    67    20    63    1
    68    20    64    1
    69    22    65    1
    70    22    66    1
    71    26    67    1
    72    27    68    1
    73    27    69    1
    74    29    70    1
    75    30    71    1
    76    31    72    1
    77    31    73    1
    78    31    74    1
    79    32    75    1
    80    35    76    1
    81    40    77    1
    82    40    78    1
    83    40    79    1
    84    42    80    1
    85    42    81    1
    86    42    82    1
@<TRIPOS>MOLECULE
02228316B
 82 86 0 0 0
SMALL
GASTEIGER

@<TRIPOS>ATOM
      1 C          -5.9552   -2.0233    1.0348 C.3     1  LIG1        0.2491
      2 C          -7.0589   -1.2146    0.3847 C.2     1  LIG1        0.3556
      3 N          -5.3799   -1.0901    2.0300 N.2     1  LIG1       -0.0687
      4 C          -6.4427   -3.2998    1.7287 C.3     1  LIG1        0.0059
      5 C          -4.8673   -2.4453    0.0425 C.3     1  LIG1        0.0059
      6 N          -6.9583    0.0509    0.9008 N.am    1  LIG1       -0.1529
      7 O          -7.8879   -1.6308   -0.4127 O.2     1  LIG1       -0.2422
      8 C          -5.9919    0.0408    1.8317 C.cat   1  LIG1        0.2916
      9 C          -5.7068   -4.4421    1.0320 C.3     1  LIG1       -0.0481
     10 C          -4.4142   -3.8093    0.5477 C.3     1  LIG1       -0.0481
     11 C          -7.9281    1.0762    0.5329 C.3     1  LIG1        0.1137
     12 C          -5.5339    1.2416    2.6343 C.3     1  LIG1        0.0509
     13 C          -7.4129    2.1286   -0.4209 C.ar    1  LIG1       -0.0073
     14 C          -6.5606    1.8429    3.5884 C.3     1  LIG1       -0.0424
     15 C          -7.6119    2.0187   -1.8056 C.ar    1  LIG1       -0.0491
     16 C          -6.7696    3.2681    0.0585 C.ar    1  LIG1       -0.0544
     17 C          -5.9486    2.8337    4.5870 C.3     1  LIG1       -0.0554
     18 C          -7.1290    2.9978   -2.7057 C.ar    1  LIG1       -0.0138
     19 C          -6.2657    4.2292   -0.8151 C.ar    1  LIG1       -0.0533
     20 C          -5.1539    3.9558    3.9324 C.3     1  LIG1       -0.0653
     21 C          -6.3820    4.0957   -2.2050 C.ar    1  LIG1       -0.0106
     22 C          -7.5371    2.9315   -4.1675 C.3     1  LIG1        0.0732
     23 C          -5.7591    5.1091   -3.0840 C.ar    1  LIG1        0.0091
     24 O          -7.7131    1.5953   -4.6351 O.3     1  LIG1       -0.3754
     25 C          -4.3730    5.2487   -3.3187 C.ar    1  LIG1        0.1162
     26 C          -6.6168    5.9973   -3.7699 C.ar    1  LIG1       -0.0521
     27 C          -8.1863    1.5580   -5.9827 C.3     1  LIG1        0.0453
     28 S          -3.0972    4.3304   -2.4693 S.O2    1  LIG1        0.0741
     29 C          -3.8959    6.1721   -4.2732 C.ar    1  LIG1       -0.0345
     30 C          -6.1347    6.9271   -4.6971 C.ar    1  LIG1       -0.0611
     31 C          -9.7041    1.5307   -6.0153 C.3     1  LIG1       -0.0416
     32 N          -2.2858    5.5608   -1.6099 N.pl3   1  LIG1       -0.1965
     33 O          -3.6394    3.3816   -1.5293 O.2     1  LIG1       -0.1499
     34 O          -2.1566    3.8953   -3.4844 O.2     1  LIG1       -0.1499
     35 C          -4.7744    7.0022   -4.9621 C.ar    1  LIG1       -0.0599
     36 C          -2.7507    5.9108   -0.3454 C.ar    1  LIG1        0.1837
     37 C          -3.7163    6.9039   -0.0315 C.ar    1  LIG1        0.0342
     38 N          -2.1837    5.4118    0.7533 N.ar    1  LIG1       -0.0614
     39 C          -3.7776    6.8643    1.3467 C.ar    1  LIG1        0.1390
     40 C          -4.4782    7.7980   -0.9309 C.3     1  LIG1       -0.0330
     41 O          -2.8672    5.9716    1.8155 O.2     1  LIG1       -0.3578
     42 C          -4.5810    7.5692    2.3642 C.3     1  LIG1       -0.0034
     43 H          -7.5260   -3.4433    1.6616 H       1  LIG1        0.0316
     44 H          -6.1794   -3.2964    2.7938 H       1  LIG1        0.0316
     45 H          -4.0274   -1.7430   -0.0019 H       1  LIG1        0.0316
     46 H          -5.2729   -2.5442   -0.9693 H       1  LIG1        0.0316
     47 H          -6.2934   -4.7983    0.1768 H       1  LIG1        0.0267
     48 H          -5.5311   -5.2907    1.6997 H       1  LIG1        0.0267
     49 H          -3.7108   -3.6940    1.3817 H       1  LIG1        0.0267
     50 H          -3.9261   -4.3990   -0.2330 H       1  LIG1        0.0267
     51 H          -8.3034    1.5558    1.4391 H       1  LIG1        0.0783
     52 H          -8.8067    0.5965    0.0830 H       1  LIG1        0.0783
     53 H          -5.1530    1.9860    1.9316 H       1  LIG1        0.0387
     54 H          -4.6656    0.9201    3.2268 H       1  LIG1        0.0387
     55 H          -7.0681    1.0450    4.1434 H       1  LIG1        0.0271
     56 H          -7.3387    2.3730    3.0355 H       1  LIG1        0.0271
     57 H          -8.1669    1.1654   -2.1982 H       1  LIG1        0.0625
     58 H          -6.6328    3.4292    1.1213 H       1  LIG1        0.0622
     59 H          -5.3016    2.2979    5.2906 H       1  LIG1        0.0263
     60 H          -6.7601    3.2769    5.1767 H       1  LIG1        0.0263
     61 H          -5.7403    5.0736   -0.3853 H       1  LIG1        0.0624
     62 H          -4.2403    3.5767    3.4637 H       1  LIG1        0.0230
     63 H          -4.8556    4.6959    4.6814 H       1  LIG1        0.0230
     64 H          -5.7475    4.4674    3.1689 H       1  LIG1        0.0230
     65 H          -6.7815    3.4038   -4.8023 H       1  LIG1        0.0610
     66 H          -8.4830    3.4798   -4.2669 H       1  LIG1        0.0610
     67 H          -7.6915    5.9538   -3.5955 H       1  LIG1        0.0624
     68 H          -7.8004    0.6412   -6.4383 H       1  LIG1        0.0557
     69 H          -7.7979    2.4020   -6.5658 H       1  LIG1        0.0557
     70 H          -2.8282    6.2503   -4.4779 H       1  LIG1        0.0637
     71 H          -6.8275    7.5807   -5.2220 H       1  LIG1        0.0618
     72 H         -10.0829    0.6745   -5.4480 H       1  LIG1        0.0252
     73 H         -10.0672    1.4587   -7.0450 H       1  LIG1        0.0252
     74 H         -10.1301    2.4296   -5.5596 H       1  LIG1        0.0252
     75 H          -1.3077    5.2681   -1.5899 H       1  LIG1        0.1753
     76 H          -4.3947    7.7089   -5.6963 H       1  LIG1        0.0618
     77 H          -3.9847    7.9082   -1.8990 H       1  LIG1        0.0280
     78 H          -4.5647    8.8008   -0.4994 H       1  LIG1        0.0280
     79 H          -5.4904    7.4161   -1.0900 H       1  LIG1        0.0280
     80 H          -4.9927    8.5022    1.9676 H       1  LIG1        0.0309
     81 H          -3.9748    7.8151    3.2413 H       1  LIG1        0.0309
     82 H          -5.4171    6.9421    2.6879 H       1  LIG1        0.0309
@<TRIPOS>BOND
     1     1     5    1
     2     1     4    1
     3     1     2    1
     4     1     3    1
     5     2     6   am
     6     2     7    2
     7     3     8    2
     8     4     9    1
     9     5    10    1
    10     6     8    1
    11     6    11    1
    12     8    12    1
    13     9    10    1
    14    11    13    1
    15    12    14    1
    16    13    15   ar
    17    13    16   ar
    18    14    17    1
    19    15    18   ar
    20    16    19   ar
    21    17    20    1
    22    18    21   ar
    23    18    22    1
    24    19    21   ar
    25    21    23    1
    26    22    24    1
    27    23    26   ar
    28    23    25   ar
    29    24    27    1
    30    25    29   ar
    31    25    28    1
    32    26    30   ar
    33    27    31    1
    34    28    34    2
    35    28    33    2
    36    28    32    1
    37    29    35   ar
    38    30    35   ar
    39    32    36    1
    40    36    37   ar
    41    36    38   ar
    42    37    39   ar
    43    37    40    1
    44    38    41   ar
    45    39    41   ar
    46    39    42    1
    47     4    43    1
    48     4    44    1
    49     5    45    1
    50     5    46    1
    51     9    47    1
    52     9    48    1
    53    10    49    1
    54    10    50    1
    55    11    51    1
    56    11    52    1
    57    12    53    1
    58    12    54    1
    59    14    55    1
    60    14    56    1
    61    15    57    1
    62    16    58    1
    63    17    59    1
    64    17    60    1
    65    19    61    1
    66    20    62    1
    67    20    63    1
    68    20    64    1
    69    22    65    1
    70    22    66    1
    71    26    67    1
    72    27    68    1
    73    27    69    1
    74    29    70    1
    75    30    71    1
    76    31    72    1
    77    31    73    1
    78    31    74    1
    79    32    75    1
    80    35    76    1
    81    40    77    1
    82    40    78    1
    83    40    79    1
    84    42    80    1
    85    42    81    1
    86    42    82    1
@<TRIPOS>MOLECULE
02228316B
 82 86 0 0 0
SMALL
GASTEIGER

@<TRIPOS>ATOM
      1 C          -5.1552   -0.7299    2.4585 C.3     1  LIG1        0.2491
      2 C          -5.8300   -0.3616    1.1580 C.2     1  LIG1        0.3556
      3 N          -6.1889   -0.4303    3.4819 N.2     1  LIG1       -0.0687
      4 C          -4.7628   -2.2109    2.5140 C.3     1  LIG1        0.0059
      5 C          -3.8845    0.0809    2.7185 C.3     1  LIG1        0.0059
      6 N          -6.9957    0.2672    1.5058 N.am    1  LIG1       -0.1529
      7 O          -5.4452   -0.6495    0.0348 O.2     1  LIG1       -0.2422
      8 C          -7.1758    0.1053    2.8250 C.cat   1  LIG1        0.2916
      9 C          -3.2384   -2.2100    2.5149 C.3     1  LIG1       -0.0481
     10 C          -2.8869   -0.9356    3.2624 C.3     1  LIG1       -0.0481
     11 C          -7.9207    0.7014    0.4764 C.3     1  LIG1        0.1137
     12 C          -8.4652    0.4068    3.5653 C.3     1  LIG1        0.0509
     13 C          -7.4139    1.8576   -0.3632 C.ar    1  LIG1       -0.0073
     14 C          -9.0758    1.7989    3.4690 C.3     1  LIG1       -0.0424
     15 C          -7.7584    1.9054   -1.7192 C.ar    1  LIG1       -0.0491
     16 C          -6.6249    2.8861    0.1375 C.ar    1  LIG1       -0.0544
     17 C          -8.1178    2.9394    3.7929 C.3     1  LIG1       -0.0554
     18 C          -7.2361    2.8638   -2.6140 C.ar    1  LIG1       -0.0138
     19 C          -6.1478    3.8893   -0.7128 C.ar    1  LIG1       -0.0533
     20 C          -8.7716    4.2813    3.4940 C.3     1  LIG1       -0.0653
     21 C          -6.3792    3.8769   -2.1022 C.ar    1  LIG1       -0.0106
     22 C          -7.6935    2.8278   -4.0677 C.3     1  LIG1        0.0732
     23 C          -5.7768    4.9398   -2.9504 C.ar    1  LIG1        0.0091
     24 O          -7.6434    1.5660   -4.7308 O.3     1  LIG1       -0.3754
     25 C          -4.3998    5.1417   -3.2053 C.ar    1  LIG1        0.1162
     26 C          -6.6681    5.8381   -3.5900 C.ar    1  LIG1       -0.0521
     27 C          -8.7176    0.6437   -4.6012 C.3     1  LIG1        0.0453
     28 S          -3.0608    4.2553   -2.4166 S.O2    1  LIG1        0.0741
     29 C          -3.9702    6.1187   -4.1315 C.ar    1  LIG1       -0.0345
     30 C          -6.2338    6.8141   -4.4929 C.ar    1  LIG1       -0.0611
     31 C         -10.1190    1.2266   -4.5244 C.3     1  LIG1       -0.0416
     32 N          -2.2909    5.4966   -1.5262 N.pl3   1  LIG1       -0.1965
     33 O          -3.5332    3.2491   -1.5021 O.2     1  LIG1       -0.1499
     34 O          -2.1175    3.9079   -3.4659 O.2     1  LIG1       -0.1499
     35 C          -4.8846    6.9429   -4.7784 C.ar    1  LIG1       -0.0599
     36 C          -2.7526    5.7773   -0.2436 C.ar    1  LIG1        0.1837
     37 C          -3.7548    6.7135    0.1196 C.ar    1  LIG1        0.0342
     38 N          -2.1617    5.2497    0.8278 N.ar    1  LIG1       -0.0614
     39 C          -3.8258    6.5880    1.4923 C.ar    1  LIG1        0.1390
     40 C          -4.5502    7.6240   -0.7337 C.3     1  LIG1       -0.0330
     41 O          -2.8718    5.7193    1.9166 O.2     1  LIG1       -0.3578
     42 C          -4.6742    7.1821    2.5425 C.3     1  LIG1       -0.0034
     43 H          -5.1492   -2.7980    1.6735 H       1  LIG1        0.0316
     44 H          -5.1271   -2.6802    3.4355 H       1  LIG1        0.0316
     45 H          -4.0322    0.9045    3.4248 H       1  LIG1        0.0316
     46 H          -3.4937    0.5095    1.7874 H       1  LIG1        0.0316
     47 H          -2.8596   -2.1630    1.4865 H       1  LIG1        0.0267
     48 H          -2.8241   -3.1034    2.9908 H       1  LIG1        0.0267
     49 H          -3.0391   -1.0756    4.3395 H       1  LIG1        0.0267
     50 H          -1.8498   -0.6289    3.0999 H       1  LIG1        0.0267
     51 H          -8.8935    0.9531    0.8937 H       1  LIG1        0.0783
     52 H          -8.0790   -0.1672   -0.1766 H       1  LIG1        0.0783
     53 H          -8.2893    0.1860    4.6277 H       1  LIG1        0.0387
     54 H          -9.2057   -0.3286    3.2242 H       1  LIG1        0.0387
     55 H          -9.9193    1.8428    4.1716 H       1  LIG1        0.0271
     56 H          -9.5203    1.9598    2.4852 H       1  LIG1        0.0271
     57 H          -8.4383    1.1452   -2.0816 H       1  LIG1        0.0625
     58 H          -6.3198    2.9087    1.1787 H       1  LIG1        0.0622
     59 H          -7.2015    2.8541    3.2036 H       1  LIG1        0.0263
     60 H          -7.8275    2.8972    4.8478 H       1  LIG1        0.0263
     61 H          -5.5226    4.6576   -0.2714 H       1  LIG1        0.0624
     62 H          -9.0675    4.3464    2.4401 H       1  LIG1        0.0230
     63 H          -8.0787    5.1014    3.7003 H       1  LIG1        0.0230
     64 H          -9.6680    4.4255    4.1065 H       1  LIG1        0.0230
     65 H          -7.0214    3.4444   -4.6682 H       1  LIG1        0.0610
     66 H          -8.6800    3.2952   -4.1557 H       1  LIG1        0.0610
     67 H          -7.7384    5.7589   -3.4008 H       1  LIG1        0.0624
     68 H          -8.5247   -0.0191   -3.7524 H       1  LIG1        0.0557
     69 H          -8.6662   -0.0052   -5.4823 H       1  LIG1        0.0557
     70 H          -2.9093    6.2423   -4.3497 H       1  LIG1        0.0637
     71 H          -6.9571    7.4600   -4.9843 H       1  LIG1        0.0618
     72 H         -10.2670    1.8047   -3.6064 H       1  LIG1        0.0252
     73 H         -10.8642    0.4239   -4.5290 H       1  LIG1        0.0252
     74 H         -10.3145    1.8918   -5.3701 H       1  LIG1        0.0252
     75 H          -1.3015    5.2446   -1.5307 H       1  LIG1        0.1753
     76 H          -4.5386    7.6839   -5.4959 H       1  LIG1        0.0618
     77 H          -4.0648    7.7961   -1.6976 H       1  LIG1        0.0280
     78 H          -4.6647    8.6022   -0.2541 H       1  LIG1        0.0280
     79 H          -5.5502    7.2169   -0.9069 H       1  LIG1        0.0280
     80 H          -5.4040    7.8794    2.1187 H       1  LIG1        0.0309
     81 H          -4.0655    7.7279    3.2694 H       1  LIG1        0.0309
     82 H          -5.2276    6.3998    3.0726 H       1  LIG1        0.0309
@<TRIPOS>BOND
     1     1     5    1
     2     1     4    1
     3     1     2    1
     4     1     3    1
     5     2     6   am
     6     2     7    2
     7     3     8    2
     8     4     9    1
     9     5    10    1
    10     6     8    1
    11     6    11    1
    12     8    12    1
    13     9    10    1
    14    11    13    1
    15    12    14    1
    16    13    15   ar
    17    13    16   ar
    18    14    17    1
    19    15    18   ar
    20    16    19   ar
    21    17    20    1
    22    18    21   ar
    23    18    22    1
    24    19    21   ar
    25    21    23    1
    26    22    24    1
    27    23    26   ar
    28    23    25   ar
    29    24    27    1
    30    25    29   ar
    31    25    28    1
    32    26    30   ar
    33    27    31    1
    34    28    34    2
    35    28    33    2
    36    28    32    1
    37    29    35   ar
    38    30    35   ar
    39    32    36    1
    40    36    37   ar
    41    36    38   ar
    42    37    39   ar
    43    37    40    1
    44    38    41   ar
    45    39    41   ar
    46    39    42    1
    47     4    43    1
    48     4    44    1
    49     5    45    1
    50     5    46    1
    51     9    47    1
    52     9    48    1
    53    10    49    1
    54    10    50    1
    55    11    51    1
    56    11    52    1
    57    12    53    1
    58    12    54    1
    59    14    55    1
    60    14    56    1
    61    15    57    1
    62    16    58    1
    63    17    59    1
    64    17    60    1
    65    19    61    1
    66    20    62    1
    67    20    63    1
    68    20    64    1
    69    22    65    1
    70    22    66    1
    71    26    67    1
    72    27    68    1
    73    27    69    1
    74    29    70    1
    75    30    71    1
    76    31    72    1
    77    31    73    1
    78    31    74    1
    79    32    75    1
    80    35    76    1
    81    40    77    1
    82    40    78    1
    83    40    79    1
    84    42    80    1
    85    42    81    1
    86    42    82    1
@<TRIPOS>MOLECULE
02228316B
 82 86 0 0 0
SMALL
GASTEIGER

@<TRIPOS>ATOM
      1 C         -11.2611    1.5294    1.7852 C.3     1  LIG1        0.2491
      2 C          -9.8225    1.9766    1.6214 C.2     1  LIG1        0.3556
      3 N         -11.2485    0.1208    1.3195 N.2     1  LIG1       -0.0687
      4 C         -11.7293    1.5913    3.2447 C.3     1  LIG1        0.0059
      5 C         -12.2467    2.3620    0.9642 C.3     1  LIG1        0.0059
      6 N          -9.1706    0.9313    1.0227 N.am    1  LIG1       -0.1529
      7 O          -9.3447    3.0327    2.0067 O.2     1  LIG1       -0.2422
      8 C         -10.0238   -0.1051    0.9490 C.cat   1  LIG1        0.2916
      9 C         -12.8010    2.6746    3.2668 C.3     1  LIG1       -0.0481
     10 C         -13.4382    2.5715    1.8921 C.3     1  LIG1       -0.0481
     11 C          -7.7300    0.9615    0.8314 C.3     1  LIG1        0.1137
     12 C          -9.6192   -1.4950    0.5084 C.3     1  LIG1        0.0509
     13 C          -7.2627    1.9944   -0.1677 C.ar    1  LIG1       -0.0073
     14 C         -10.3212   -1.9528   -0.7711 C.3     1  LIG1       -0.0424
     15 C          -7.7415    2.0360   -1.4788 C.ar    1  LIG1       -0.0491
     16 C          -6.3031    2.9276    0.1920 C.ar    1  LIG1       -0.0544
     17 C          -9.8558   -1.2591   -2.0514 C.3     1  LIG1       -0.0554
     18 C          -7.2560    2.9548   -2.4490 C.ar    1  LIG1       -0.0138
     19 C          -5.8443    3.8590   -0.7429 C.ar    1  LIG1       -0.0533
     20 C          -8.3919   -1.5073   -2.3858 C.3     1  LIG1       -0.0653
     21 C          -6.2523    3.8912   -2.0868 C.ar    1  LIG1       -0.0106
     22 C          -7.9614    2.9069   -3.7950 C.3     1  LIG1        0.0732
     23 C          -5.6880    4.9305   -3.0045 C.ar    1  LIG1        0.0091
     24 O          -7.0639    2.9146   -4.8969 O.3     1  LIG1       -0.3754
     25 C          -4.3168    5.1981   -3.2643 C.ar    1  LIG1        0.1162
     26 C          -6.6080    5.7731   -3.6740 C.ar    1  LIG1       -0.0521
     27 C          -7.7305    2.7623   -6.1511 C.3     1  LIG1        0.0453
     28 S          -2.9318    4.4718   -2.3783 S.O2    1  LIG1        0.0741
     29 C          -3.9354    6.1437   -4.2461 C.ar    1  LIG1       -0.0345
     30 C          -6.2209    6.7263   -4.6228 C.ar    1  LIG1       -0.0611
     31 C          -8.4044    4.0469   -6.6058 C.3     1  LIG1       -0.0416
     32 N          -2.8361    5.3893   -0.9525 N.pl3   1  LIG1       -0.1965
     33 O          -3.2797    3.1290   -1.9671 O.2     1  LIG1       -0.1499
     34 O          -1.7227    4.6926   -3.1413 O.2     1  LIG1       -0.1499
     35 C          -4.8823    6.8959   -4.9277 C.ar    1  LIG1       -0.0599
     36 C          -3.0975    6.7575   -0.9588 C.ar    1  LIG1        0.1837
     37 C          -4.0450    7.4367   -0.1390 C.ar    1  LIG1        0.0342
     38 N          -2.4584    7.6080   -1.7636 N.ar    1  LIG1       -0.0614
     39 C          -3.9460    8.7494   -0.5513 C.ar    1  LIG1        0.1390
     40 C          -4.9983    6.9079    0.8624 C.3     1  LIG1       -0.0330
     41 O          -2.9874    8.8547   -1.5052 O.2     1  LIG1       -0.3578
     42 C          -4.6533    9.9920   -0.1852 C.3     1  LIG1       -0.0034
     43 H         -10.9256    1.8247    3.9513 H       1  LIG1        0.0316
     44 H         -12.1719    0.6371    3.5566 H       1  LIG1        0.0316
     45 H         -12.5544    1.8756    0.0326 H       1  LIG1        0.0316
     46 H         -11.8163    3.3362    0.7022 H       1  LIG1        0.0316
     47 H         -12.3389    3.6602    3.3979 H       1  LIG1        0.0267
     48 H         -13.5232    2.5257    4.0748 H       1  LIG1        0.0267
     49 H         -14.1079    1.7041    1.8495 H       1  LIG1        0.0267
     50 H         -14.0158    3.4631    1.6326 H       1  LIG1        0.0267
     51 H          -7.3462   -0.0113    0.5205 H       1  LIG1        0.0783
     52 H          -7.2893    1.1714    1.8145 H       1  LIG1        0.0783
     53 H          -9.9286   -2.1690    1.3187 H       1  LIG1        0.0387
     54 H          -8.5402   -1.6134    0.4258 H       1  LIG1        0.0387
     55 H         -11.4031   -1.8020   -0.6724 H       1  LIG1        0.0271
     56 H         -10.1684   -3.0335   -0.8830 H       1  LIG1        0.0271
     57 H          -8.5239    1.3410   -1.7648 H       1  LIG1        0.0625
     58 H          -5.9062    2.9546    1.2040 H       1  LIG1        0.0622
     59 H         -10.0528   -0.1853   -1.9838 H       1  LIG1        0.0263
     60 H         -10.4635   -1.6296   -2.8857 H       1  LIG1        0.0263
     61 H          -5.1410    4.5871   -0.3843 H       1  LIG1        0.0624
     62 H          -7.7235   -1.0969   -1.6252 H       1  LIG1        0.0230
     63 H          -8.1374   -1.0306   -3.3380 H       1  LIG1        0.0230
     64 H          -8.1866   -2.5783   -2.4773 H       1  LIG1        0.0230
     65 H          -8.6614    3.7469   -3.8489 H       1  LIG1        0.0610
     66 H          -8.5621    1.9905   -3.8586 H       1  LIG1        0.0610
     67 H          -7.6714    5.6884   -3.4632 H       1  LIG1        0.0624
     68 H          -8.4526    1.9387   -6.1041 H       1  LIG1        0.0557
     69 H          -6.9694    2.4831   -6.8865 H       1  LIG1        0.0557
     70 H          -2.8821    6.3321   -4.4566 H       1  LIG1        0.0637
     71 H          -6.9724    7.3257   -5.1291 H       1  LIG1        0.0618
     72 H          -9.1916    4.3593   -5.9133 H       1  LIG1        0.0252
     73 H          -8.8562    3.9151   -7.5937 H       1  LIG1        0.0252
     74 H          -7.6788    4.8640   -6.6593 H       1  LIG1        0.0252
     75 H          -3.1302    4.8399   -0.1528 H       1  LIG1        0.1753
     76 H          -4.5671    7.6271   -5.6672 H       1  LIG1        0.0618
     77 H          -4.5946    6.0331    1.3792 H       1  LIG1        0.0280
     78 H          -5.9371    6.6285    0.3721 H       1  LIG1        0.0280
     79 H          -5.2376    7.6595    1.6213 H       1  LIG1        0.0280
     80 H          -5.7132    9.7921    0.0014 H       1  LIG1        0.0309
     81 H          -4.5900   10.7357   -0.9853 H       1  LIG1        0.0309
     82 H          -4.2213   10.4227    0.7230 H       1  LIG1        0.0309
@<TRIPOS>BOND
     1     1     5    1
     2     1     4    1
     3     1     2    1
     4     1     3    1
     5     2     6   am
     6     2     7    2
     7     3     8    2
     8     4     9    1
     9     5    10    1
    10     6     8    1
    11     6    11    1
    12     8    12    1
    13     9    10    1
    14    11    13    1
    15    12    14    1
    16    13    15   ar
    17    13    16   ar
    18    14    17    1
    19    15    18   ar
    20    16    19   ar
    21    17    20    1
    22    18    21   ar
    23    18    22    1
    24    19    21   ar
    25    21    23    1
    26    22    24    1
    27    23    26   ar
    28    23    25   ar
    29    24    27    1
    30    25    29   ar
    31    25    28    1
    32    26    30   ar
    33    27    31    1
    34    28    34    2
    35    28    33    2
    36    28    32    1
    37    29    35   ar
    38    30    35   ar
    39    32    36    1
    40    36    37   ar
    41    36    38   ar
    42    37    39   ar
    43    37    40    1
    44    38    41   ar
    45    39    41   ar
    46    39    42    1
    47     4    43    1
    48     4    44    1
    49     5    45    1
    50     5    46    1
    51     9    47    1
    52     9    48    1
    53    10    49    1
    54    10    50    1
    55    11    51    1
    56    11    52    1
    57    12    53    1
    58    12    54    1
    59    14    55    1
    60    14    56    1
    61    15    57    1
    62    16    58    1
    63    17    59    1
    64    17    60    1
    65    19    61    1
    66    20    62    1
    67    20    63    1
    68    20    64    1
    69    22    65    1
    70    22    66    1
    71    26    67    1
    72    27    68    1
    73    27    69    1
    74    29    70    1
    75    30    71    1
    76    31    72    1
    77    31    73    1
    78    31    74    1
    79    32    75    1
    80    35    76    1
    81    40    77    1
    82    40    78    1
    83    40    79    1
    84    42    80    1
    85    42    81    1
    86    42    82    1
@<TRIPOS>MOLECULE
02228316B
 82 86 0 0 0
SMALL
GASTEIGER

@<TRIPOS>ATOM
      1 C         -11.4721    0.2560    0.9416 C.3     1  LIG1        0.2491
      2 C         -10.1559    0.8905    1.3489 C.2     1  LIG1        0.3556
      3 N         -11.1206   -0.5471   -0.2563 N.2     1  LIG1       -0.0687
      4 C         -12.0773   -0.6540    2.0157 C.3     1  LIG1        0.0059
      5 C         -12.5348    1.2973    0.5894 C.3     1  LIG1        0.0059
      6 N          -9.2453    0.5099    0.3916 N.am    1  LIG1       -0.1529
      7 O          -9.9538    1.5733    2.3407 O.2     1  LIG1       -0.2422
      8 C          -9.8534   -0.3482   -0.4431 C.cat   1  LIG1        0.2916
      9 C         -13.4222   -0.0216    2.3658 C.3     1  LIG1       -0.0481
     10 C         -13.8383    0.6905    1.0906 C.3     1  LIG1       -0.0481
     11 C          -7.8453    0.9055    0.4920 C.3     1  LIG1        0.1137
     12 C          -9.1310   -0.9851   -1.6140 C.3     1  LIG1        0.0509
     13 C          -7.4440    2.0942   -0.3590 C.ar    1  LIG1       -0.0073
     14 C          -9.6029   -2.4034   -1.9309 C.3     1  LIG1       -0.0424
     15 C          -7.8463    2.2399   -1.6810 C.ar    1  LIG1       -0.0491
     16 C          -6.5684    3.0579    0.1220 C.ar    1  LIG1       -0.0544
     17 C          -9.0557   -2.9185   -3.2660 C.3     1  LIG1       -0.0554
     18 C          -7.3367    3.2457   -2.5540 C.ar    1  LIG1       -0.0138
     19 C          -6.0953    4.0949   -0.7080 C.ar    1  LIG1       -0.0533
     20 C          -7.5392   -3.0328   -3.3035 C.3     1  LIG1       -0.0653
     21 C          -6.3794    4.2004   -2.0822 C.ar    1  LIG1       -0.0106
     22 C          -7.9363    3.1617   -3.9542 C.3     1  LIG1        0.0732
     23 C          -5.7133    5.2474   -2.9645 C.ar    1  LIG1        0.0091
     24 O          -6.9981    2.8953   -4.9864 O.3     1  LIG1       -0.3754
     25 C          -4.3406    5.6338   -3.0102 C.ar    1  LIG1        0.1162
     26 C          -6.5084    5.8622   -3.9627 C.ar    1  LIG1       -0.0521
     27 C          -6.5113    1.5558   -5.0272 C.3     1  LIG1        0.0453
     28 S          -3.1680    5.5710   -1.6555 S.O2    1  LIG1        0.0741
     29 C          -3.8221    6.3452   -4.1263 C.ar    1  LIG1       -0.0345
     30 C          -5.9944    6.5755   -5.0537 C.ar    1  LIG1       -0.0611
     31 C          -7.5751    0.5498   -5.4444 C.3     1  LIG1       -0.0416
     32 N          -2.8439    3.9340   -1.3946 N.pl3   1  LIG1       -0.1965
     33 O          -1.9307    6.2145   -2.0678 O.2     1  LIG1       -0.1499
     34 O          -3.8043    6.0785   -0.4578 O.2     1  LIG1       -0.1499
     35 C          -4.6352    6.7754   -5.1642 C.ar    1  LIG1       -0.0599
     36 C          -1.6777    3.4583   -1.9883 C.ar    1  LIG1        0.1837
     37 C          -0.3914    3.3779   -1.3910 C.ar    1  LIG1        0.0342
     38 N          -1.6661    3.0368   -3.2528 N.ar    1  LIG1       -0.0614
     39 C           0.4035    2.9022   -2.4142 C.ar    1  LIG1        0.1390
     40 C           0.0432    3.7855   -0.0358 C.3     1  LIG1       -0.0330
     41 O          -0.3576    2.6892   -3.5211 O.2     1  LIG1       -0.3578
     42 C           1.8433    2.6205   -2.5610 C.3     1  LIG1       -0.0034
     43 H         -11.4512   -0.7492    2.9087 H       1  LIG1        0.0316
     44 H         -12.2463   -1.6655    1.6262 H       1  LIG1        0.0316
     45 H         -12.5858    1.5206   -0.4818 H       1  LIG1        0.0316
     46 H         -12.3494    2.2424    1.1155 H       1  LIG1        0.0316
     47 H         -13.2945    0.7034    3.1788 H       1  LIG1        0.0267
     48 H         -14.1586   -0.7651    2.6865 H       1  LIG1        0.0267
     49 H         -14.2269   -0.0299    0.3608 H       1  LIG1        0.0267
     50 H         -14.6073    1.4477    1.2685 H       1  LIG1        0.0267
     51 H          -7.2156    0.0533    0.2134 H       1  LIG1        0.0783
     52 H          -7.6249    1.1280    1.5430 H       1  LIG1        0.0783
     53 H          -8.0541   -0.9755   -1.4498 H       1  LIG1        0.0387
     54 H          -9.3458   -0.3598   -2.4868 H       1  LIG1        0.0387
     55 H         -10.6985   -2.4351   -1.9835 H       1  LIG1        0.0271
     56 H          -9.3118   -3.0792   -1.1177 H       1  LIG1        0.0271
     57 H          -8.5794    1.5495   -2.0818 H       1  LIG1        0.0625
     58 H          -6.2388    3.0342    1.1616 H       1  LIG1        0.0622
     59 H          -9.3872   -2.2623   -4.0801 H       1  LIG1        0.0263
     60 H          -9.4877   -3.9072   -3.4635 H       1  LIG1        0.0263
     61 H          -5.5070    4.8458   -0.2020 H       1  LIG1        0.0624
     62 H          -7.0601   -2.0522   -3.2302 H       1  LIG1        0.0230
     63 H          -7.2201   -3.4841   -4.2482 H       1  LIG1        0.0230
     64 H          -7.1729   -3.6607   -2.4855 H       1  LIG1        0.0230
     65 H          -8.4768    4.0791   -4.1894 H       1  LIG1        0.0610
     66 H          -8.7407    2.4161   -3.9994 H       1  LIG1        0.0610
     67 H          -7.5908    5.7819   -3.9203 H       1  LIG1        0.0624
     68 H          -6.0633    1.2793   -4.0669 H       1  LIG1        0.0557
     69 H          -5.7106    1.5429   -5.7721 H       1  LIG1        0.0557
     70 H          -2.7647    6.5995   -4.1879 H       1  LIG1        0.0637
     71 H          -6.6658    6.9481   -5.8235 H       1  LIG1        0.0618
     72 H          -8.3192    0.4029   -4.6571 H       1  LIG1        0.0252
     73 H          -7.1225   -0.4227   -5.6530 H       1  LIG1        0.0252
     74 H          -8.1116    0.8934   -6.3361 H       1  LIG1        0.0252
     75 H          -2.9364    3.7694   -0.3952 H       1  LIG1        0.1753
     76 H          -4.2148    7.3102   -6.0105 H       1  LIG1        0.0618
     77 H          -0.7763    4.2154    0.5446 H       1  LIG1        0.0280
     78 H           0.8349    4.5388   -0.1019 H       1  LIG1        0.0280
     79 H           0.4345    2.9249    0.5147 H       1  LIG1        0.0280
     80 H           2.3866    2.8258   -1.6330 H       1  LIG1        0.0309
     81 H           2.2754    3.2440   -3.3492 H       1  LIG1        0.0309
     82 H           2.0031    1.5711   -2.8237 H       1  LIG1        0.0309
@<TRIPOS>BOND
     1     1     5    1
     2     1     4    1
     3     1     2    1
     4     1     3    1
     5     2     6   am
     6     2     7    2
     7     3     8    2
     8     4     9    1
     9     5    10    1
    10     6     8    1
    11     6    11    1
    12     8    12    1
    13     9    10    1
    14    11    13    1
    15    12    14    1
    16    13    15   ar
    17    13    16   ar
    18    14    17    1
    19    15    18   ar
    20    16    19   ar
    21    17    20    1
    22    18    21   ar
    23    18    22    1
    24    19    21   ar
    25    21    23    1
    26    22    24    1
    27    23    26   ar
    28    23    25   ar
    29    24    27    1
    30    25    29   ar
    31    25    28    1
    32    26    30   ar
    33    27    31    1
    34    28    34    2
    35    28    33    2
    36    28    32    1
    37    29    35   ar
    38    30    35   ar
    39    32    36    1
    40    36    37   ar
    41    36    38   ar
    42    37    39   ar
    43    37    40    1
    44    38    41   ar
    45    39    41   ar
    46    39    42    1
    47     4    43    1
    48     4    44    1
    49     5    45    1
    50     5    46    1
    51     9    47    1
    52     9    48    1
    53    10    49    1
    54    10    50    1
    55    11    51    1
    56    11    52    1
    57    12    53    1
    58    12    54    1
    59    14    55    1
    60    14    56    1
    61    15    57    1
    62    16    58    1
    63    17    59    1
    64    17    60    1
    65    19    61    1
    66    20    62    1
    67    20    63    1
    68    20    64    1
    69    22    65    1
    70    22    66    1
    71    26    67    1
    72    27    68    1
    73    27    69    1
    74    29    70    1
    75    30    71    1
    76    31    72    1
    77    31    73    1
    78    31    74    1
    79    32    75    1
    80    35    76    1
    81    40    77    1
    82    40    78    1
    83    40    79    1
    84    42    80    1
    85    42    81    1
    86    42    82    1
@<TRIPOS>MOLECULE
02228316B
 82 86 0 0 0
SMALL
GASTEIGER

@<TRIPOS>ATOM
      1 C         -11.2548    1.5686    1.9885 C.3     1  LIG1        0.2491
      2 C          -9.7982    1.8539    1.6890 C.2     1  LIG1        0.3556
      3 N         -11.4264    0.1478    1.5889 N.2     1  LIG1       -0.0687
      4 C         -11.6358    1.7561    3.4604 C.3     1  LIG1        0.0059
      5 C         -12.2035    2.4490    1.1713 C.3     1  LIG1        0.0059
      6 N          -9.3612    0.7842    0.9561 N.am    1  LIG1       -0.1529
      7 O          -9.1508    2.8191    2.0687 O.2     1  LIG1       -0.2422
      8 C         -10.3031   -0.1765    1.0248 C.cat   1  LIG1        0.2916
      9 C         -12.7612    2.7886    3.4601 C.3     1  LIG1       -0.0481
     10 C         -13.4010    2.6469    2.0895 C.3     1  LIG1       -0.0481
     11 C          -7.9766    0.6226    0.5571 C.3     1  LIG1        0.1137
     12 C         -10.0260   -1.5569    0.4736 C.3     1  LIG1        0.0509
     13 C          -7.4908    1.6827   -0.3931 C.ar    1  LIG1       -0.0073
     14 C         -11.1318   -2.5856    0.6919 C.3     1  LIG1       -0.0424
     15 C          -7.9681    1.8157   -1.6991 C.ar    1  LIG1       -0.0491
     16 C          -6.5059    2.5562    0.0203 C.ar    1  LIG1       -0.0544
     17 C         -12.3282   -2.3823   -0.2379 C.3     1  LIG1       -0.0554
     18 C          -7.4400    2.7822   -2.6099 C.ar    1  LIG1       -0.0138
     19 C          -6.0132    3.5149   -0.8603 C.ar    1  LIG1       -0.0533
     20 C         -13.3488   -3.4962   -0.0638 C.3     1  LIG1       -0.0653
     21 C          -6.3977    3.6600   -2.1954 C.ar    1  LIG1       -0.0106
     22 C          -8.0723    2.7768   -3.9905 C.3     1  LIG1        0.0732
     23 C          -5.7570    4.7389   -3.0294 C.ar    1  LIG1        0.0091
     24 O          -7.1663    2.5131   -5.0533 O.3     1  LIG1       -0.3754
     25 C          -4.3741    5.0817   -3.1304 C.ar    1  LIG1        0.1162
     26 C          -6.6240    5.5819   -3.7695 C.ar    1  LIG1       -0.0521
     27 C          -6.6077    1.2011   -5.0646 C.3     1  LIG1        0.0453
     28 S          -3.0137    4.3799   -2.1859 S.O2    1  LIG1        0.0741
     29 C          -3.9365    6.0848   -4.0365 C.ar    1  LIG1       -0.0345
     30 C          -6.1817    6.5707   -4.6599 C.ar    1  LIG1       -0.0611
     31 C          -7.6493    0.1051   -5.2278 C.3     1  LIG1       -0.0416
     32 N          -2.7102    5.6125   -1.0258 N.pl3   1  LIG1       -0.1965
     33 O          -3.3800    3.1386   -1.5502 O.2     1  LIG1       -0.1499
     34 O          -1.8430    4.4098   -3.0461 O.2     1  LIG1       -0.1499
     35 C          -4.8306    6.8064   -4.8126 C.ar    1  LIG1       -0.0599
     36 C          -3.2540    5.4926    0.2511 C.ar    1  LIG1        0.1837
     37 C          -4.4678    6.0721    0.7167 C.ar    1  LIG1        0.0342
     38 N          -2.6286    4.8203    1.2171 N.ar    1  LIG1       -0.0614
     39 C          -4.6344    5.4898    1.9577 C.ar    1  LIG1        0.1390
     40 C          -5.4165    6.9610    0.0075 C.3     1  LIG1       -0.0330
     41 O          -3.5220    4.7745    2.2739 O.2     1  LIG1       -0.3578
     42 C          -5.7463    5.4305    2.9287 C.3     1  LIG1       -0.0034
     43 H         -10.8036    2.0999    4.0838 H       1  LIG1        0.0316
     44 H         -12.0013    0.8180    3.8955 H       1  LIG1        0.0316
     45 H         -12.5018    1.9979    0.2189 H       1  LIG1        0.0316
     46 H         -11.7449    3.4207    0.9503 H       1  LIG1        0.0316
     47 H         -12.3438    3.7959    3.5765 H       1  LIG1        0.0267
     48 H         -13.4751    2.6225    4.2722 H       1  LIG1        0.0267
     49 H         -14.0513    1.7645    2.0624 H       1  LIG1        0.0267
     50 H         -13.9963    3.5216    1.8141 H       1  LIG1        0.0267
     51 H          -7.8101   -0.3529    0.0894 H       1  LIG1        0.0783
     52 H          -7.3772    0.6306    1.4766 H       1  LIG1        0.0783
     53 H          -9.1237   -1.9278    0.9760 H       1  LIG1        0.0387
     54 H          -9.7909   -1.4661   -0.5932 H       1  LIG1        0.0387
     55 H         -11.4620   -2.5730    1.7376 H       1  LIG1        0.0271
     56 H         -10.7086   -3.5808    0.5066 H       1  LIG1        0.0271
     57 H          -8.7618    1.1467   -2.0301 H       1  LIG1        0.0625
     58 H          -6.0924    2.5089    1.0256 H       1  LIG1        0.0622
     59 H         -11.9926   -2.3624   -1.2810 H       1  LIG1        0.0263
     60 H         -12.8134   -1.4217   -0.0364 H       1  LIG1        0.0263
     61 H          -5.2523    4.1476   -0.4569 H       1  LIG1        0.0624
     62 H         -12.9149   -4.4670   -0.3248 H       1  LIG1        0.0230
     63 H         -14.2124   -3.3246   -0.7132 H       1  LIG1        0.0230
     64 H         -13.7035   -3.5458    0.9706 H       1  LIG1        0.0230
     65 H          -8.5555    3.7372   -4.1827 H       1  LIG1        0.0610
     66 H          -8.9091    2.0705   -4.0424 H       1  LIG1        0.0610
     67 H          -7.7005    5.4898   -3.6552 H       1  LIG1        0.0624
     68 H          -5.9998    1.0379   -4.1689 H       1  LIG1        0.0557
     69 H          -5.9280    1.1660   -5.9222 H       1  LIG1        0.0557
     70 H          -2.8771    6.3159   -4.1393 H       1  LIG1        0.0637
     71 H          -6.9042    7.1478   -5.2315 H       1  LIG1        0.0618
     72 H          -8.2376   -0.0232   -4.3136 H       1  LIG1        0.0252
     73 H          -7.1690   -0.8530   -5.4446 H       1  LIG1        0.0252
     74 H          -8.3503    0.3460   -6.0334 H       1  LIG1        0.0252
     75 H          -1.6912    5.6789   -0.9969 H       1  LIG1        0.1753
     76 H          -4.4729    7.5590   -5.5107 H       1  LIG1        0.0618
     77 H          -4.9896    7.3502   -0.9211 H       1  LIG1        0.0280
     78 H          -5.6815    7.8157    0.6382 H       1  LIG1        0.0280
     79 H          -6.3411    6.4288   -0.2379 H       1  LIG1        0.0280
     80 H          -6.6416    5.9251    2.5387 H       1  LIG1        0.0309
     81 H          -5.4692    5.9079    3.8719 H       1  LIG1        0.0309
     82 H          -6.0124    4.3874    3.1347 H       1  LIG1        0.0309
@<TRIPOS>BOND
     1     1     5    1
     2     1     4    1
     3     1     2    1
     4     1     3    1
     5     2     6   am
     6     2     7    2
     7     3     8    2
     8     4     9    1
     9     5    10    1
    10     6     8    1
    11     6    11    1
    12     8    12    1
    13     9    10    1
    14    11    13    1
    15    12    14    1
    16    13    15   ar
    17    13    16   ar
    18    14    17    1
    19    15    18   ar
    20    16    19   ar
    21    17    20    1
    22    18    21   ar
    23    18    22    1
    24    19    21   ar
    25    21    23    1
    26    22    24    1
    27    23    26   ar
    28    23    25   ar
    29    24    27    1
    30    25    29   ar
    31    25    28    1
    32    26    30   ar
    33    27    31    1
    34    28    34    2
    35    28    33    2
    36    28    32    1
    37    29    35   ar
    38    30    35   ar
    39    32    36    1
    40    36    37   ar
    41    36    38   ar
    42    37    39   ar
    43    37    40    1
    44    38    41   ar
    45    39    41   ar
    46    39    42    1
    47     4    43    1
    48     4    44    1
    49     5    45    1
    50     5    46    1
    51     9    47    1
    52     9    48    1
    53    10    49    1
    54    10    50    1
    55    11    51    1
    56    11    52    1
    57    12    53    1
    58    12    54    1
    59    14    55    1
    60    14    56    1
    61    15    57    1
    62    16    58    1
    63    17    59    1
    64    17    60    1
    65    19    61    1
    66    20    62    1
    67    20    63    1
    68    20    64    1
    69    22    65    1
    70    22    66    1
    71    26    67    1
    72    27    68    1
    73    27    69    1
    74    29    70    1
    75    30    71    1
    76    31    72    1
    77    31    73    1
    78    31    74    1
    79    32    75    1
    80    35    76    1
    81    40    77    1
    82    40    78    1
    83    40    79    1
    84    42    80    1
    85    42    81    1
    86    42    82    1
@<TRIPOS>MOLECULE
02228316B
 82 86 0 0 0
SMALL
GASTEIGER

@<TRIPOS>ATOM
      1 C         -10.1221    1.3680    3.4649 C.3     1  LIG1        0.2491
      2 C          -8.9200    0.8017    2.7438 C.2     1  LIG1        0.3556
      3 N         -10.8478    2.1015    2.4042 N.2     1  LIG1       -0.0687
      4 C         -11.0421    0.3115    4.0873 C.3     1  LIG1        0.0059
      5 C          -9.7202    2.3245    4.5864 C.3     1  LIG1        0.0059
      6 N          -8.9080    1.3860    1.5042 N.am    1  LIG1       -0.1529
      7 O          -8.1496   -0.0438    3.1759 O.2     1  LIG1       -0.2422
      8 C         -10.0816    2.0297    1.3566 C.cat   1  LIG1        0.2916
      9 C         -11.0887    0.6440    5.5767 C.3     1  LIG1       -0.0481
     10 C         -10.8042    2.1355    5.6369 C.3     1  LIG1       -0.0481
     11 C          -7.9448    0.9235    0.5122 C.3     1  LIG1        0.1137
     12 C         -10.5652    2.6343    0.0605 C.3     1  LIG1        0.0509
     13 C          -7.3583    1.9760   -0.3937 C.ar    1  LIG1       -0.0073
     14 C         -10.8157    4.1416    0.1530 C.3     1  LIG1       -0.0424
     15 C          -7.6445    1.9481   -1.7628 C.ar    1  LIG1       -0.0491
     16 C          -6.5386    2.9948    0.0817 C.ar    1  LIG1       -0.0544
     17 C          -9.5663    4.9500    0.4995 C.3     1  LIG1       -0.0554
     18 C          -7.1385    2.9121   -2.6621 C.ar    1  LIG1       -0.0138
     19 C          -6.0173    3.9519   -0.8023 C.ar    1  LIG1       -0.0533
     20 C          -9.8332    6.4464    0.4553 C.3     1  LIG1       -0.0653
     21 C          -6.2350    3.9017   -2.1944 C.ar    1  LIG1       -0.0106
     22 C          -7.7536    2.8899   -4.0473 C.3     1  LIG1        0.0732
     23 C          -5.5774    4.9000   -3.0818 C.ar    1  LIG1        0.0091
     24 O          -8.9674    3.6429   -3.9477 O.3     1  LIG1       -0.3754
     25 C          -4.1861    5.1180   -3.2224 C.ar    1  LIG1        0.1162
     26 C          -6.4158    5.7128   -3.8870 C.ar    1  LIG1       -0.0521
     27 C          -9.6710    3.8055   -5.1726 C.3     1  LIG1        0.0453
     28 S          -2.8707    4.2800   -2.3323 S.O2    1  LIG1        0.0741
     29 C          -3.7056    6.0997   -4.1264 C.ar    1  LIG1       -0.0345
     30 C          -5.9259    6.6201   -4.8332 C.ar    1  LIG1       -0.0611
     31 C         -10.5092    2.5835   -5.4952 C.3     1  LIG1       -0.0416
     32 N          -2.4373    3.0283   -3.4011 N.pl3   1  LIG1       -0.1965
     33 O          -1.7772    5.2268   -2.2009 O.2     1  LIG1       -0.1499
     34 O          -3.3612    3.6016   -1.1580 O.2     1  LIG1       -0.1499
     35 C          -4.5634    6.8187   -4.9497 C.ar    1  LIG1       -0.0599
     36 C          -1.3264    3.2547   -4.2043 C.ar    1  LIG1        0.1837
     37 C          -1.3494    3.7068   -5.5450 C.ar    1  LIG1        0.0342
     38 N          -0.0905    2.9768   -3.7908 N.ar    1  LIG1       -0.0614
     39 C          -0.0131    3.8456   -5.8521 C.ar    1  LIG1        0.1390
     40 C          -2.5110    3.9661   -6.4221 C.3     1  LIG1       -0.0330
     41 O           0.7416    3.4015   -4.8119 O.2     1  LIG1       -0.3578
     42 C           0.7269    4.3436   -7.0257 C.3     1  LIG1       -0.0034
     43 H         -10.6948   -0.7156    3.9327 H       1  LIG1        0.0316
     44 H         -12.0555    0.3760    3.6714 H       1  LIG1        0.0316
     45 H          -9.6521    3.3677    4.2617 H       1  LIG1        0.0316
     46 H          -8.7480    2.0429    5.0094 H       1  LIG1        0.0316
     47 H         -10.3056    0.0892    6.1071 H       1  LIG1        0.0267
     48 H         -12.0512    0.3864    6.0286 H       1  LIG1        0.0267
     49 H         -11.7000    2.7056    5.3645 H       1  LIG1        0.0267
     50 H         -10.4791    2.4579    6.6299 H       1  LIG1        0.0267
     51 H          -8.4513    0.1520   -0.0799 H       1  LIG1        0.0783
     52 H          -7.1094    0.4209    1.0160 H       1  LIG1        0.0783
     53 H         -11.5180    2.1442   -0.1785 H       1  LIG1        0.0387
     54 H          -9.9071    2.4151   -0.7714 H       1  LIG1        0.0387
     55 H         -11.5953    4.3442    0.8970 H       1  LIG1        0.0271
     56 H         -11.2068    4.4815   -0.8142 H       1  LIG1        0.0271
     57 H          -8.3373    1.1953   -2.1411 H       1  LIG1        0.0625
     58 H          -6.2901    3.0630    1.1392 H       1  LIG1        0.0622
     59 H          -8.7715    4.7240   -0.2142 H       1  LIG1        0.0263
     60 H          -9.2056    4.6810    1.4987 H       1  LIG1        0.0263
     61 H          -5.3996    4.7441   -0.3780 H       1  LIG1        0.0624
     62 H         -10.0881    6.7647   -0.5607 H       1  LIG1        0.0230
     63 H          -8.9411    6.9990    0.7672 H       1  LIG1        0.0230
     64 H         -10.6565    6.7224    1.1209 H       1  LIG1        0.0230
     65 H          -7.9843    1.8594   -4.3401 H       1  LIG1        0.0610
     66 H          -7.0868    3.3035   -4.8083 H       1  LIG1        0.0610
     67 H          -7.4981    5.6337   -3.7917 H       1  LIG1        0.0624
     68 H          -8.9833    4.0536   -5.9876 H       1  LIG1        0.0557
     69 H         -10.3420    4.6622   -5.0406 H       1  LIG1        0.0557
     70 H          -2.6358    6.2956   -4.2120 H       1  LIG1        0.0637
     71 H          -6.6152    7.1756   -5.4625 H       1  LIG1        0.0618
     72 H          -9.8793    1.7082   -5.6760 H       1  LIG1        0.0252
     73 H         -11.1207    2.7597   -6.3852 H       1  LIG1        0.0252
     74 H         -11.1706    2.3375   -4.6576 H       1  LIG1        0.0252
     75 H          -2.3100    2.2212   -2.7869 H       1  LIG1        0.1753
     76 H          -4.1664    7.5349   -5.6648 H       1  LIG1        0.0618
     77 H          -3.4560    3.7149   -5.9317 H       1  LIG1        0.0280
     78 H          -2.4431    3.3540   -7.3278 H       1  LIG1        0.0280
     79 H          -2.5436    5.0172   -6.7230 H       1  LIG1        0.0280
     80 H           0.0422    4.6883   -7.8066 H       1  LIG1        0.0309
     81 H           1.3580    3.5560   -7.4469 H       1  LIG1        0.0309
     82 H           1.3646    5.1869   -6.7425 H       1  LIG1        0.0309
@<TRIPOS>BOND
     1     1     5    1
     2     1     4    1
     3     1     2    1
     4     1     3    1
     5     2     6   am
     6     2     7    2
     7     3     8    2
     8     4     9    1
     9     5    10    1
    10     6     8    1
    11     6    11    1
    12     8    12    1
    13     9    10    1
    14    11    13    1
    15    12    14    1
    16    13    15   ar
    17    13    16   ar
    18    14    17    1
    19    15    18   ar
    20    16    19   ar
    21    17    20    1
    22    18    21   ar
    23    18    22    1
    24    19    21   ar
    25    21    23    1
    26    22    24    1
    27    23    26   ar
    28    23    25   ar
    29    24    27    1
    30    25    29   ar
    31    25    28    1
    32    26    30   ar
    33    27    31    1
    34    28    34    2
    35    28    33    2
    36    28    32    1
    37    29    35   ar
    38    30    35   ar
    39    32    36    1
    40    36    37   ar
    41    36    38   ar
    42    37    39   ar
    43    37    40    1
    44    38    41   ar
    45    39    41   ar
    46    39    42    1
    47     4    43    1
    48     4    44    1
    49     5    45    1
    50     5    46    1
    51     9    47    1
    52     9    48    1
    53    10    49    1
    54    10    50    1
    55    11    51    1
    56    11    52    1
    57    12    53    1
    58    12    54    1
    59    14    55    1
    60    14    56    1
    61    15    57    1
    62    16    58    1
    63    17    59    1
    64    17    60    1
    65    19    61    1
    66    20    62    1
    67    20    63    1
    68    20    64    1
    69    22    65    1
    70    22    66    1
    71    26    67    1
    72    27    68    1
    73    27    69    1
    74    29    70    1
    75    30    71    1
    76    31    72    1
    77    31    73    1
    78    31    74    1
    79    32    75    1
    80    35    76    1
    81    40    77    1
    82    40    78    1
    83    40    79    1
    84    42    80    1
    85    42    81    1
    86    42    82    1
@<TRIPOS>MOLECULE
02228316B
 82 86 0 0 0
SMALL
GASTEIGER

@<TRIPOS>ATOM
      1 C         -11.1487    1.5021    2.2330 C.3     1  LIG1        0.2491
      2 C          -9.6490    1.6688    2.1233 C.2     1  LIG1        0.3556
      3 N         -11.4786    0.5172    1.1746 N.2     1  LIG1       -0.0687
      4 C         -11.6059    0.9842    3.6001 C.3     1  LIG1        0.0059
      5 C         -11.9031    2.8075    1.9756 C.3     1  LIG1        0.0059
      6 N          -9.2740    0.9161    1.0429 N.am    1  LIG1       -0.1529
      7 O          -8.9320    2.3221    2.8584 O.2     1  LIG1       -0.2422
      8 C         -10.3526    0.2650    0.5785 C.cat   1  LIG1        0.2916
      9 C         -12.5498    2.0561    4.1399 C.3     1  LIG1       -0.0481
     10 C         -13.1125    2.7190    2.8945 C.3     1  LIG1       -0.0481
     11 C          -7.8913    0.8690    0.6096 C.3     1  LIG1        0.1137
     12 C         -10.2945   -0.6736   -0.6076 C.3     1  LIG1        0.0509
     13 C          -7.5383    2.0034   -0.3214 C.ar    1  LIG1       -0.0073
     14 C         -11.0824   -1.9723   -0.4054 C.3     1  LIG1       -0.0424
     15 C          -7.8122    1.9353   -1.6910 C.ar    1  LIG1       -0.0491
     16 C          -6.9306    3.1567    0.1711 C.ar    1  LIG1       -0.0544
     17 C         -12.5876   -1.8233   -0.6439 C.3     1  LIG1       -0.0554
     18 C          -7.3807    2.9406   -2.5869 C.ar    1  LIG1       -0.0138
     19 C          -6.4910    4.1516   -0.7060 C.ar    1  LIG1       -0.0533
     20 C         -13.2923   -3.1711   -0.6019 C.3     1  LIG1       -0.0653
     21 C          -6.6037    4.0186   -2.0993 C.ar    1  LIG1       -0.0106
     22 C          -7.8183    2.8132   -4.0326 C.3     1  LIG1        0.0732
     23 C          -5.9072    4.9937   -2.9698 C.ar    1  LIG1        0.0091
     24 O          -6.7914    2.4215   -4.9311 O.3     1  LIG1       -0.3754
     25 C          -4.5013    5.1203   -3.0871 C.ar    1  LIG1        0.1162
     26 C          -6.6888    5.8788   -3.7439 C.ar    1  LIG1       -0.0521
     27 C          -6.3900    1.0586   -4.8469 C.3     1  LIG1        0.0453
     28 S          -3.3078    4.1582   -2.1640 S.O2    1  LIG1        0.0741
     29 C          -3.9353    6.0344   -4.0024 C.ar    1  LIG1       -0.0345
     30 C          -6.1201    6.7807   -4.6481 C.ar    1  LIG1       -0.0611
     31 C          -7.5044    0.0788   -5.1861 C.3     1  LIG1       -0.0416
     32 N          -2.7670    5.2752   -1.0077 N.pl3   1  LIG1       -0.1965
     33 O          -3.9074    3.0155   -1.5186 O.2     1  LIG1       -0.1499
     34 O          -2.1563    3.9549   -3.0254 O.2     1  LIG1       -0.1499
     35 C          -4.7430    6.8505   -4.7881 C.ar    1  LIG1       -0.0599
     36 C          -3.2385    5.1939    0.2986 C.ar    1  LIG1        0.1837
     37 C          -2.9124    4.2231    1.2788 C.ar    1  LIG1        0.0342
     38 N          -4.0325    6.1458    0.7944 N.ar    1  LIG1       -0.0614
     39 C          -3.6861    4.5901    2.3617 C.ar    1  LIG1        0.1390
     40 C          -2.0137    3.0536    1.1705 C.3     1  LIG1       -0.0330
     41 O          -4.3443    5.7445    2.0772 O.2     1  LIG1       -0.3578
     42 C          -3.9511    4.0043    3.6897 C.3     1  LIG1       -0.0034
     43 H         -10.7785    0.8156    4.2982 H       1  LIG1        0.0316
     44 H         -12.1479    0.0359    3.5022 H       1  LIG1        0.0316
     45 H         -12.2042    2.9348    0.9306 H       1  LIG1        0.0316
     46 H         -11.2937    3.6766    2.2535 H       1  LIG1        0.0316
     47 H         -11.9849    2.7869    4.7312 H       1  LIG1        0.0267
     48 H         -13.3317    1.6351    4.7782 H       1  LIG1        0.0267
     49 H         -13.8873    2.0869    2.4434 H       1  LIG1        0.0267
     50 H         -13.5481    3.7003    3.1036 H       1  LIG1        0.0267
     51 H          -7.6705   -0.0862    0.1247 H       1  LIG1        0.0783
     52 H          -7.2443    0.9107    1.4949 H       1  LIG1        0.0783
     53 H          -9.2595   -0.9478   -0.8203 H       1  LIG1        0.0387
     54 H         -10.6660   -0.1321   -1.4845 H       1  LIG1        0.0387
     55 H         -10.9031   -2.3707    0.6006 H       1  LIG1        0.0271
     56 H         -10.6944   -2.7147   -1.1150 H       1  LIG1        0.0271
     57 H          -8.3550    1.0772   -2.0820 H       1  LIG1        0.0625
     58 H          -6.7556    3.2827    1.2381 H       1  LIG1        0.0622
     59 H         -12.7692   -1.3554   -1.6184 H       1  LIG1        0.0263
     60 H         -13.0367   -1.1753    0.1150 H       1  LIG1        0.0263
     61 H          -6.0113    5.0298   -0.2870 H       1  LIG1        0.0624
     62 H         -12.9276   -3.8284   -1.3978 H       1  LIG1        0.0230
     63 H         -14.3703   -3.0390   -0.7396 H       1  LIG1        0.0230
     64 H         -13.1307   -3.6703    0.3586 H       1  LIG1        0.0230
     65 H          -8.2094    3.7743   -4.3770 H       1  LIG1        0.0610
     66 H          -8.6851    2.1473   -4.1197 H       1  LIG1        0.0610
     67 H          -7.7743    5.8634   -3.6532 H       1  LIG1        0.0624
     68 H          -5.9613    0.8463   -3.8630 H       1  LIG1        0.0557
     69 H          -5.5852    0.9329   -5.5811 H       1  LIG1        0.0557
     70 H          -2.8564    6.1105   -4.1121 H       1  LIG1        0.0637
     71 H          -6.7607    7.4222   -5.2500 H       1  LIG1        0.0618
     72 H          -8.2322    0.0102   -4.3720 H       1  LIG1        0.0252
     73 H          -7.0989   -0.9236   -5.3471 H       1  LIG1        0.0252
     74 H          -8.0478    0.3947   -6.0824 H       1  LIG1        0.0252
     75 H          -1.7518    5.3239   -1.0914 H       1  LIG1        0.1753
     76 H          -4.2952    7.5417   -5.4972 H       1  LIG1        0.0618
     77 H          -1.3626    3.1283    0.2937 H       1  LIG1        0.0280
     78 H          -2.5943    2.1301    1.0906 H       1  LIG1        0.0280
     79 H          -1.3700    2.9821    2.0523 H       1  LIG1        0.0280
     80 H          -3.1200    3.3704    4.0150 H       1  LIG1        0.0309
     81 H          -4.8560    3.3871    3.6532 H       1  LIG1        0.0309
     82 H          -4.0982    4.7825    4.4425 H       1  LIG1        0.0309
@<TRIPOS>BOND
     1     1     5    1
     2     1     4    1
     3     1     2    1
     4     1     3    1
     5     2     6   am
     6     2     7    2
     7     3     8    2
     8     4     9    1
     9     5    10    1
    10     6     8    1
    11     6    11    1
    12     8    12    1
    13     9    10    1
    14    11    13    1
    15    12    14    1
    16    13    15   ar
    17    13    16   ar
    18    14    17    1
    19    15    18   ar
    20    16    19   ar
    21    17    20    1
    22    18    21   ar
    23    18    22    1
    24    19    21   ar
    25    21    23    1
    26    22    24    1
    27    23    26   ar
    28    23    25   ar
    29    24    27    1
    30    25    29   ar
    31    25    28    1
    32    26    30   ar
    33    27    31    1
    34    28    34    2
    35    28    33    2
    36    28    32    1
    37    29    35   ar
    38    30    35   ar
    39    32    36    1
    40    36    37   ar
    41    36    38   ar
    42    37    39   ar
    43    37    40    1
    44    38    41   ar
    45    39    41   ar
    46    39    42    1
    47     4    43    1
    48     4    44    1
    49     5    45    1
    50     5    46    1
    51     9    47    1
    52     9    48    1
    53    10    49    1
    54    10    50    1
    55    11    51    1
    56    11    52    1
    57    12    53    1
    58    12    54    1
    59    14    55    1
    60    14    56    1
    61    15    57    1
    62    16    58    1
    63    17    59    1
    64    17    60    1
    65    19    61    1
    66    20    62    1
    67    20    63    1
    68    20    64    1
    69    22    65    1
    70    22    66    1
    71    26    67    1
    72    27    68    1
    73    27    69    1
    74    29    70    1
    75    30    71    1
    76    31    72    1
    77    31    73    1
    78    31    74    1
    79    32    75    1
    80    35    76    1
    81    40    77    1
    82    40    78    1
    83    40    79    1
    84    42    80    1
    85    42    81    1
    86    42    82    1
@<TRIPOS>MOLECULE
02228316B
 82 86 0 0 0
SMALL
GASTEIGER

@<TRIPOS>ATOM
      1 C         -11.2621    1.6087    2.0858 C.3     1  LIG1        0.2491
      2 C          -9.8085    1.9737    1.8781 C.2     1  LIG1        0.3556
      3 N         -11.3387    0.2039    1.6124 N.2     1  LIG1       -0.0687
      4 C         -11.7296    1.7118    3.5387 C.3     1  LIG1        0.0059
      5 C         -12.1999    2.4833    1.2493 C.3     1  LIG1        0.0059
      6 N          -9.2972    0.9879    1.0812 N.am    1  LIG1       -0.1529
      7 O          -9.2198    2.9252    2.3671 O.2     1  LIG1       -0.2422
      8 C         -10.1874   -0.0237    1.0578 C.cat   1  LIG1        0.2916
      9 C         -12.8287    2.7715    3.5269 C.3     1  LIG1       -0.0481
     10 C         -13.4245    2.6656    2.1333 C.3     1  LIG1       -0.0481
     11 C          -7.9004    0.9662    0.6875 C.3     1  LIG1        0.1137
     12 C          -9.8443   -1.3531    0.4223 C.3     1  LIG1        0.0509
     13 C          -7.5337    2.0672   -0.2776 C.ar    1  LIG1       -0.0073
     14 C         -10.8910   -2.4525    0.6165 C.3     1  LIG1       -0.0424
     15 C          -7.8245    1.9688   -1.6426 C.ar    1  LIG1       -0.0491
     16 C          -6.8928    3.2180    0.1773 C.ar    1  LIG1       -0.0544
     17 C         -12.1235   -2.2814   -0.2745 C.3     1  LIG1       -0.0554
     18 C          -7.3796    2.9440   -2.5681 C.ar    1  LIG1       -0.0138
     19 C          -6.4501    4.1842   -0.7266 C.ar    1  LIG1       -0.0533
     20 C         -13.1167   -3.4149   -0.0629 C.3     1  LIG1       -0.0653
     21 C          -6.5801    4.0217   -2.1143 C.ar    1  LIG1       -0.0106
     22 C          -7.8361    2.7934   -4.0053 C.3     1  LIG1        0.0732
     23 C          -5.8868    4.9789   -3.0076 C.ar    1  LIG1        0.0091
     24 O          -6.8145    2.4159   -4.9166 O.3     1  LIG1       -0.3754
     25 C          -4.4804    5.1123   -3.1232 C.ar    1  LIG1        0.1162
     26 C          -6.6705    5.8526   -3.7919 C.ar    1  LIG1       -0.0521
     27 C          -6.3925    1.0585   -4.8337 C.3     1  LIG1        0.0453
     28 S          -3.2837    4.1623   -2.1904 S.O2    1  LIG1        0.0741
     29 C          -3.9176    6.0216   -4.0445 C.ar    1  LIG1       -0.0345
     30 C          -6.1045    6.7504   -4.7027 C.ar    1  LIG1       -0.0611
     31 C          -7.4956    0.0654   -5.1680 C.3     1  LIG1       -0.0416
     32 N          -2.7533    5.2866   -1.0342 N.pl3   1  LIG1       -0.1965
     33 O          -3.8777    3.0151   -1.5456 O.2     1  LIG1       -0.1499
     34 O          -2.1266    3.9674   -3.0468 O.2     1  LIG1       -0.1499
     35 C          -4.7266    6.8283   -4.8381 C.ar    1  LIG1       -0.0599
     36 C          -3.2177    5.2044    0.2735 C.ar    1  LIG1        0.1837
     37 C          -2.8997    4.2288    1.2509 C.ar    1  LIG1        0.0342
     38 N          -3.9919    6.1670    0.7787 N.ar    1  LIG1       -0.0614
     39 C          -3.6596    4.6015    2.3387 C.ar    1  LIG1        0.1390
     40 C          -2.0115    3.0498    1.1363 C.3     1  LIG1       -0.0330
     41 O          -4.3040    5.7653    2.0621 O.2     1  LIG1       -0.3578
     42 C          -3.9240    4.0155    3.6673 C.3     1  LIG1       -0.0034
     43 H         -10.9300    1.9972    4.2331 H       1  LIG1        0.0316
     44 H         -12.1421    0.7611    3.8898 H       1  LIG1        0.0316
     45 H         -12.4684    2.0357    0.2859 H       1  LIG1        0.0316
     46 H         -11.7462    3.4613    1.0440 H       1  LIG1        0.0316
     47 H         -12.3932    3.7671    3.6743 H       1  LIG1        0.0267
     48 H         -13.5712    2.6048    4.3118 H       1  LIG1        0.0267
     49 H         -14.0765    1.7867    2.0637 H       1  LIG1        0.0267
     50 H         -14.0070    3.5492    1.8586 H       1  LIG1        0.0267
     51 H          -7.6401    0.0046    0.2347 H       1  LIG1        0.0783
     52 H          -7.2946    1.0518    1.5984 H       1  LIG1        0.0783
     53 H          -8.9098   -1.7009    0.8795 H       1  LIG1        0.0387
     54 H          -9.6463   -1.1921   -0.6437 H       1  LIG1        0.0387
     55 H         -11.1951   -2.5022    1.6694 H       1  LIG1        0.0271
     56 H         -10.4227   -3.4165    0.3797 H       1  LIG1        0.0271
     57 H          -8.3953    1.1137   -2.0008 H       1  LIG1        0.0625
     58 H          -6.7091    3.3705    1.2391 H       1  LIG1        0.0622
     59 H         -11.8212   -2.2598   -1.3276 H       1  LIG1        0.0263
     60 H         -12.6256   -1.3318   -0.0643 H       1  LIG1        0.0263
     61 H          -5.9594    5.0682   -0.3329 H       1  LIG1        0.0624
     62 H         -12.6715   -4.3804   -0.3238 H       1  LIG1        0.0230
     63 H         -14.0006   -3.2676   -0.6913 H       1  LIG1        0.0230
     64 H         -13.4459   -3.4594    0.9804 H       1  LIG1        0.0230
     65 H          -8.2503    3.7454   -4.3506 H       1  LIG1        0.0610
     66 H          -8.6904    2.1102   -4.0758 H       1  LIG1        0.0610
     67 H          -7.7554    5.8349   -3.7017 H       1  LIG1        0.0624
     68 H          -5.9580    0.8535   -3.8505 H       1  LIG1        0.0557
     69 H          -5.5902    0.9442   -5.5701 H       1  LIG1        0.0557
     70 H          -2.8363    6.1058   -4.1537 H       1  LIG1        0.0637
     71 H          -6.7468    7.3846   -5.3087 H       1  LIG1        0.0618
     72 H          -8.2176   -0.0146   -4.3490 H       1  LIG1        0.0252
     73 H          -7.0784   -0.9319   -5.3335 H       1  LIG1        0.0252
     74 H          -8.0491    0.3753   -6.0603 H       1  LIG1        0.0252
     75 H          -1.7421    5.3572   -1.1224 H       1  LIG1        0.1753
     76 H          -4.2814    7.5171   -5.5506 H       1  LIG1        0.0618
     77 H          -1.3609    3.1207    0.2594 H       1  LIG1        0.0280
     78 H          -2.6011    2.1318    1.0563 H       1  LIG1        0.0280
     79 H          -1.3665    2.9693    2.0175 H       1  LIG1        0.0280
     80 H          -3.0928    3.3830    3.9932 H       1  LIG1        0.0309
     81 H          -4.8281    3.3986    3.6318 H       1  LIG1        0.0309
     82 H          -4.0720    4.7950    4.4211 H       1  LIG1        0.0309
@<TRIPOS>BOND
     1     1     5    1
     2     1     4    1
     3     1     2    1
     4     1     3    1
     5     2     6   am
     6     2     7    2
     7     3     8    2
     8     4     9    1
     9     5    10    1
    10     6     8    1
    11     6    11    1
    12     8    12    1
    13     9    10    1
    14    11    13    1
    15    12    14    1
    16    13    15   ar
    17    13    16   ar
    18    14    17    1
    19    15    18   ar
    20    16    19   ar
    21    17    20    1
    22    18    21   ar
    23    18    22    1
    24    19    21   ar
    25    21    23    1
    26    22    24    1
    27    23    26   ar
    28    23    25   ar
    29    24    27    1
    30    25    29   ar
    31    25    28    1
    32    26    30   ar
    33    27    31    1
    34    28    34    2
    35    28    33    2
    36    28    32    1
    37    29    35   ar
    38    30    35   ar
    39    32    36    1
    40    36    37   ar
    41    36    38   ar
    42    37    39   ar
    43    37    40    1
    44    38    41   ar
    45    39    41   ar
    46    39    42    1
    47     4    43    1
    48     4    44    1
    49     5    45    1
    50     5    46    1
    51     9    47    1
    52     9    48    1
    53    10    49    1
    54    10    50    1
    55    11    51    1
    56    11    52    1
    57    12    53    1
    58    12    54    1
    59    14    55    1
    60    14    56    1
    61    15    57    1
    62    16    58    1
    63    17    59    1
    64    17    60    1
    65    19    61    1
    66    20    62    1
    67    20    63    1
    68    20    64    1
    69    22    65    1
    70    22    66    1
    71    26    67    1
    72    27    68    1
    73    27    69    1
    74    29    70    1
    75    30    71    1
    76    31    72    1
    77    31    73    1
    78    31    74    1
    79    32    75    1
    80    35    76    1
    81    40    77    1
    82    40    78    1
    83    40    79    1
    84    42    80    1
    85    42    81    1
    86    42    82    1
@<TRIPOS>MOLECULE
02228316B
 82 86 0 0 0
SMALL
GASTEIGER

@<TRIPOS>ATOM
      1 C         -11.2317    1.5583    2.0031 C.3     1  LIG1        0.2491
      2 C          -9.7800    1.9315    1.7867 C.2     1  LIG1        0.3556
      3 N         -11.3026    0.1430    1.5516 N.2     1  LIG1       -0.0687
      4 C         -11.6886    1.6860    3.4585 C.3     1  LIG1        0.0059
      5 C         -12.1815    2.4133    1.1600 C.3     1  LIG1        0.0059
      6 N          -9.2556    0.9235    1.0274 N.am    1  LIG1       -0.1529
      7 O          -9.2017    2.9038    2.2431 O.2     1  LIG1       -0.2422
      8 C         -10.1407   -0.0925    1.0220 C.cat   1  LIG1        0.2916
      9 C         -12.8096    2.7220    3.4351 C.3     1  LIG1       -0.0481
     10 C         -13.4072    2.5866    2.0453 C.3     1  LIG1       -0.0481
     11 C          -7.8562    0.8933    0.6487 C.3     1  LIG1        0.1137
     12 C          -9.7738   -1.4341    0.4288 C.3     1  LIG1        0.0509
     13 C          -7.4656    1.9931   -0.3062 C.ar    1  LIG1       -0.0073
     14 C         -10.8673   -2.4921    0.5763 C.3     1  LIG1       -0.0424
     15 C          -7.9116    2.0188   -1.6282 C.ar    1  LIG1       -0.0491
     16 C          -6.6427    3.0277    0.1118 C.ar    1  LIG1       -0.0544
     17 C         -10.4311   -3.8790    0.0979 C.3     1  LIG1       -0.0554
     18 C          -7.4395    2.9790   -2.5681 C.ar    1  LIG1       -0.0138
     19 C          -6.1975    3.9874   -0.8005 C.ar    1  LIG1       -0.0533
     20 C         -10.1440   -3.9428   -1.3942 C.3     1  LIG1       -0.0653
     21 C          -6.4563    3.9283   -2.1762 C.ar    1  LIG1       -0.0106
     22 C          -8.0980    2.9199   -3.9343 C.3     1  LIG1        0.0732
     23 C          -5.7191    4.8743   -3.0780 C.ar    1  LIG1        0.0091
     24 O          -7.2388    2.5678   -5.0074 O.3     1  LIG1       -0.3754
     25 C          -4.3099    5.1026   -3.1037 C.ar    1  LIG1        0.1162
     26 C          -6.4718    5.6651   -3.9765 C.ar    1  LIG1       -0.0521
     27 C          -6.7152    1.2440   -4.9558 C.3     1  LIG1        0.0453
     28 S          -3.0854    4.3087   -2.0502 S.O2    1  LIG1        0.0741
     29 C          -3.7354    5.9929   -4.0459 C.ar    1  LIG1       -0.0345
     30 C          -5.8923    6.5320   -4.9121 C.ar    1  LIG1       -0.0611
     31 C          -7.7852    0.1631   -4.9963 C.3     1  LIG1       -0.0416
     32 N          -2.7806    5.4953   -0.8709 N.pl3   1  LIG1       -0.1965
     33 O          -3.5969    3.1013   -1.4571 O.2     1  LIG1       -0.1499
     34 O          -1.8398    4.2459   -2.8028 O.2     1  LIG1       -0.1499
     35 C          -4.5197    6.6889   -4.9553 C.ar    1  LIG1       -0.0599
     36 C          -3.2548    5.3403    0.4282 C.ar    1  LIG1        0.1837
     37 C          -2.9220    4.3433    1.3810 C.ar    1  LIG1        0.0342
     38 N          -4.1183    6.2260    0.9324 N.ar    1  LIG1       -0.0614
     39 C          -3.8038    4.5855    2.4159 C.ar    1  LIG1        0.1390
     40 C          -1.9304    3.2506    1.2900 C.3     1  LIG1       -0.0330
     41 O          -4.5026    5.7212    2.1585 O.2     1  LIG1       -0.3578
     42 C          -4.1544    3.8800    3.6638 C.3     1  LIG1       -0.0034
     43 H         -10.8904    2.0014    4.1391 H       1  LIG1        0.0316
     44 H         -12.0795    0.7329    3.8347 H       1  LIG1        0.0316
     45 H         -12.4452    1.9535    0.2015 H       1  LIG1        0.0316
     46 H         -11.7409    3.3951    0.9467 H       1  LIG1        0.0316
     47 H         -12.3931    3.7277    3.5685 H       1  LIG1        0.0267
     48 H         -13.5467    2.5522    4.2250 H       1  LIG1        0.0267
     49 H         -14.0444    1.6960    1.9903 H       1  LIG1        0.0267
     50 H         -14.0056    3.4563    1.7604 H       1  LIG1        0.0267
     51 H          -7.5992   -0.0665    0.1892 H       1  LIG1        0.0783
     52 H          -7.2652    0.9638    1.5704 H       1  LIG1        0.0783
     53 H          -8.8626   -1.7869    0.9260 H       1  LIG1        0.0387
     54 H          -9.5384   -1.2726   -0.6288 H       1  LIG1        0.0387
     55 H         -11.7666   -2.1790    0.0318 H       1  LIG1        0.0271
     56 H         -11.1554   -2.5719    1.6324 H       1  LIG1        0.0271
     57 H          -8.6396    1.2727   -1.9442 H       1  LIG1        0.0625
     58 H          -6.3228    3.1018    1.1481 H       1  LIG1        0.0622
     59 H         -11.2284   -4.5949    0.3309 H       1  LIG1        0.0263
     60 H          -9.5433   -4.2031    0.6536 H       1  LIG1        0.0263
     61 H          -5.5971    4.7971   -0.4155 H       1  LIG1        0.0624
     62 H         -11.0057   -3.5990   -1.9748 H       1  LIG1        0.0230
     63 H          -9.9246   -4.9735   -1.6908 H       1  LIG1        0.0230
     64 H          -9.2781   -3.3306   -1.6629 H       1  LIG1        0.0230
     65 H          -8.5542    3.8871   -4.1608 H       1  LIG1        0.0610
     66 H          -8.9664    2.2496   -3.9259 H       1  LIG1        0.0610
     67 H          -7.5567    5.6319   -3.9579 H       1  LIG1        0.0624
     68 H          -6.0694    1.1280   -4.0798 H       1  LIG1        0.0557
     69 H          -6.0782    1.1345   -5.8392 H       1  LIG1        0.0557
     70 H          -2.6575    6.1476   -4.0813 H       1  LIG1        0.0637
     71 H          -6.5253    7.0824   -5.6036 H       1  LIG1        0.0618
     72 H          -8.3545    0.1260   -4.0628 H       1  LIG1        0.0252
     73 H          -7.3296   -0.8207   -5.1389 H       1  LIG1        0.0252
     74 H          -8.5013    0.3479   -5.8032 H       1  LIG1        0.0252
     75 H          -1.7965    5.7499   -0.9288 H       1  LIG1        0.1753
     76 H          -4.0614    7.3563   -5.6803 H       1  LIG1        0.0618
     77 H          -1.3161    3.3341    0.3891 H       1  LIG1        0.0280
     78 H          -2.4258    2.2754    1.2838 H       1  LIG1        0.0280
     79 H          -1.2538    3.2869    2.1512 H       1  LIG1        0.0280
     80 H          -3.3447    3.2198    3.9876 H       1  LIG1        0.0309
     81 H          -5.0488    3.2667    3.5080 H       1  LIG1        0.0309
     82 H          -4.3639    4.5869    4.4720 H       1  LIG1        0.0309
@<TRIPOS>BOND
     1     1     5    1
     2     1     4    1
     3     1     2    1
     4     1     3    1
     5     2     6   am
     6     2     7    2
     7     3     8    2
     8     4     9    1
     9     5    10    1
    10     6     8    1
    11     6    11    1
    12     8    12    1
    13     9    10    1
    14    11    13    1
    15    12    14    1
    16    13    15   ar
    17    13    16   ar
    18    14    17    1
    19    15    18   ar
    20    16    19   ar
    21    17    20    1
    22    18    21   ar
    23    18    22    1
    24    19    21   ar
    25    21    23    1
    26    22    24    1
    27    23    26   ar
    28    23    25   ar
    29    24    27    1
    30    25    29   ar
    31    25    28    1
    32    26    30   ar
    33    27    31    1
    34    28    34    2
    35    28    33    2
    36    28    32    1
    37    29    35   ar
    38    30    35   ar
    39    32    36    1
    40    36    37   ar
    41    36    38   ar
    42    37    39   ar
    43    37    40    1
    44    38    41   ar
    45    39    41   ar
    46    39    42    1
    47     4    43    1
    48     4    44    1
    49     5    45    1
    50     5    46    1
    51     9    47    1
    52     9    48    1
    53    10    49    1
    54    10    50    1
    55    11    51    1
    56    11    52    1
    57    12    53    1
    58    12    54    1
    59    14    55    1
    60    14    56    1
    61    15    57    1
    62    16    58    1
    63    17    59    1
    64    17    60    1
    65    19    61    1
    66    20    62    1
    67    20    63    1
    68    20    64    1
    69    22    65    1
    70    22    66    1
    71    26    67    1
    72    27    68    1
    73    27    69    1
    74    29    70    1
    75    30    71    1
    76    31    72    1
    77    31    73    1
    78    31    74    1
    79    32    75    1
    80    35    76    1
    81    40    77    1
    82    40    78    1
    83    40    79    1
    84    42    80    1
    85    42    81    1
    86    42    82    1
@<TRIPOS>MOLECULE
02228316B
 82 86 0 0 0
SMALL
GASTEIGER

@<TRIPOS>ATOM
      1 C         -11.2639    1.6016    2.0825 C.3     1  LIG1        0.2491
      2 C          -9.8114    1.9735    1.8767 C.2     1  LIG1        0.3556
      3 N         -11.3325    0.1952    1.6137 N.2     1  LIG1       -0.0687
      4 C         -11.7344    1.7095    3.5338 C.3     1  LIG1        0.0059
      5 C         -12.2045    2.4686    1.2396 C.3     1  LIG1        0.0059
      6 N          -9.2949    0.9881    1.0818 N.am    1  LIG1       -0.1529
      7 O          -9.2285    2.9283    2.3648 O.2     1  LIG1       -0.2422
      8 C         -10.1818   -0.0270    1.0563 C.cat   1  LIG1        0.2916
      9 C         -12.8346    2.7670    3.5161 C.3     1  LIG1       -0.0481
     10 C         -13.4296    2.6544    2.1229 C.3     1  LIG1       -0.0481
     11 C          -7.8980    0.9715    0.6930 C.3     1  LIG1        0.1137
     12 C          -9.8316   -1.3528    0.4189 C.3     1  LIG1        0.0509
     13 C          -7.5334    2.0719   -0.2734 C.ar    1  LIG1       -0.0073
     14 C         -10.8812   -2.4560    0.5741 C.3     1  LIG1       -0.0424
     15 C          -7.8277    1.9729   -1.6376 C.ar    1  LIG1       -0.0491
     16 C          -6.8915    3.2225    0.1799 C.ar    1  LIG1       -0.0544
     17 C         -12.1974   -2.2539   -0.1836 C.3     1  LIG1       -0.0554
     18 C          -7.3843    2.9470   -2.5645 C.ar    1  LIG1       -0.0138
     19 C          -6.4502    4.1880   -0.7254 C.ar    1  LIG1       -0.0533
     20 C         -12.0247   -2.0447   -1.6785 C.3     1  LIG1       -0.0653
     21 C          -6.5827    4.0238   -2.1127 C.ar    1  LIG1       -0.0106
     22 C          -7.8444    2.7969   -4.0004 C.3     1  LIG1        0.0732
     23 C          -5.8868    4.9781   -3.0072 C.ar    1  LIG1        0.0091
     24 O          -6.8260    2.4171   -4.9143 O.3     1  LIG1       -0.3754
     25 C          -4.4796    5.1069   -3.1205 C.ar    1  LIG1        0.1162
     26 C          -6.6682    5.8512   -3.7942 C.ar    1  LIG1       -0.0521
     27 C          -6.4043    1.0598   -4.8308 C.3     1  LIG1        0.0453
     28 S          -3.2873    4.1572   -2.1852 S.O2    1  LIG1        0.0741
     29 C          -3.9139    6.0147   -4.0440 C.ar    1  LIG1       -0.0345
     30 C          -6.0994    6.7470   -4.7053 C.ar    1  LIG1       -0.0611
     31 C          -7.5095    0.0661   -5.1561 C.3     1  LIG1       -0.0416
     32 N          -2.7520    5.2864   -1.0347 N.pl3   1  LIG1       -0.1965
     33 O          -3.8835    3.0151   -1.5334 O.2     1  LIG1       -0.1499
     34 O          -2.1316    3.9530   -3.0405 O.2     1  LIG1       -0.1499
     35 C          -4.7211    6.8223   -4.8383 C.ar    1  LIG1       -0.0599
     36 C          -3.2127    5.2080    0.2743 C.ar    1  LIG1        0.1837
     37 C          -2.8918    4.2335    1.2534 C.ar    1  LIG1        0.0342
     38 N          -3.9884    6.1706    0.7770 N.ar    1  LIG1       -0.0614
     39 C          -3.6563    4.6078    2.3401 C.ar    1  LIG1        0.1390
     40 C          -2.0048    3.0557    1.1404 C.3     1  LIG1       -0.0330
     41 O          -4.3011    5.7707    2.0607 O.2     1  LIG1       -0.3578
     42 C          -3.9225    4.0215    3.6673 C.3     1  LIG1       -0.0034
     43 H         -10.9381    1.9934    4.2299 H       1  LIG1        0.0316
     44 H         -12.1500    0.7571    3.8846 H       1  LIG1        0.0316
     45 H         -12.4724    2.0136    0.2798 H       1  LIG1        0.0316
     46 H         -11.7533    3.4460    1.0281 H       1  LIG1        0.0316
     47 H         -12.3989    3.7630    3.6593 H       1  LIG1        0.0267
     48 H         -13.5778    2.6041    4.3017 H       1  LIG1        0.0267
     49 H         -14.0814    1.7751    2.0571 H       1  LIG1        0.0267
     50 H         -14.0123    3.5366    1.8440 H       1  LIG1        0.0267
     51 H          -7.6307    0.0098    0.2435 H       1  LIG1        0.0783
     52 H          -7.2953    1.0621    1.6056 H       1  LIG1        0.0783
     53 H          -8.9109   -1.7074    0.8989 H       1  LIG1        0.0387
     54 H          -9.5912   -1.1828   -0.6356 H       1  LIG1        0.0387
     55 H         -11.1112   -2.5929    1.6383 H       1  LIG1        0.0271
     56 H         -10.4330   -3.3988    0.2347 H       1  LIG1        0.0271
     57 H          -8.4000    1.1179   -1.9939 H       1  LIG1        0.0625
     58 H          -6.7051    3.3754    1.2411 H       1  LIG1        0.0622
     59 H         -12.7610   -1.4135    0.2333 H       1  LIG1        0.0263
     60 H         -12.8198   -3.1436   -0.0257 H       1  LIG1        0.0263
     61 H          -5.9572    5.0712   -0.3334 H       1  LIG1        0.0624
     62 H         -11.5341   -1.0908   -1.8935 H       1  LIG1        0.0230
     63 H         -13.0032   -2.0298   -2.1690 H       1  LIG1        0.0230
     64 H         -11.4339   -2.8509   -2.1239 H       1  LIG1        0.0230
     65 H          -8.2579    3.7491   -4.3451 H       1  LIG1        0.0610
     66 H          -8.7003    2.1148   -4.0685 H       1  LIG1        0.0610
     67 H          -7.7531    5.8364   -3.7048 H       1  LIG1        0.0624
     68 H          -5.9639    0.8570   -3.8496 H       1  LIG1        0.0557
     69 H          -5.6060    0.9434   -5.5717 H       1  LIG1        0.0557
     70 H          -2.8335    6.0960   -4.1505 H       1  LIG1        0.0637
     71 H          -6.7399    7.3820   -5.3128 H       1  LIG1        0.0618
     72 H          -8.2268   -0.0115   -4.3329 H       1  LIG1        0.0252
     73 H          -7.0932   -0.9322   -5.3209 H       1  LIG1        0.0252
     74 H          -8.0673    0.3731   -6.0461 H       1  LIG1        0.0252
     75 H          -1.7411    5.3526   -1.1266 H       1  LIG1        0.1753
     76 H          -4.2740    7.5099   -5.5512 H       1  LIG1        0.0618
     77 H          -1.3551    3.1255    0.2624 H       1  LIG1        0.0280
     78 H          -2.5928    2.1369    1.0630 H       1  LIG1        0.0280
     79 H          -1.3581    2.9775    2.0206 H       1  LIG1        0.0280
     80 H          -3.0916    3.3889    3.9939 H       1  LIG1        0.0309
     81 H          -4.8271    3.4063    3.6308 H       1  LIG1        0.0309
     82 H          -4.0695    4.8020    4.4205 H       1  LIG1        0.0309
@<TRIPOS>BOND
     1     1     5    1
     2     1     4    1
     3     1     2    1
     4     1     3    1
     5     2     6   am
     6     2     7    2
     7     3     8    2
     8     4     9    1
     9     5    10    1
    10     6     8    1
    11     6    11    1
    12     8    12    1
    13     9    10    1
    14    11    13    1
    15    12    14    1
    16    13    15   ar
    17    13    16   ar
    18    14    17    1
    19    15    18   ar
    20    16    19   ar
    21    17    20    1
    22    18    21   ar
    23    18    22    1
    24    19    21   ar
    25    21    23    1
    26    22    24    1
    27    23    26   ar
    28    23    25   ar
    29    24    27    1
    30    25    29   ar
    31    25    28    1
    32    26    30   ar
    33    27    31    1
    34    28    34    2
    35    28    33    2
    36    28    32    1
    37    29    35   ar
    38    30    35   ar
    39    32    36    1
    40    36    37   ar
    41    36    38   ar
    42    37    39   ar
    43    37    40    1
    44    38    41   ar
    45    39    41   ar
    46    39    42    1
    47     4    43    1
    48     4    44    1
    49     5    45    1
    50     5    46    1
    51     9    47    1
    52     9    48    1
    53    10    49    1
    54    10    50    1
    55    11    51    1
    56    11    52    1
    57    12    53    1
    58    12    54    1
    59    14    55    1
    60    14    56    1
    61    15    57    1
    62    16    58    1
    63    17    59    1
    64    17    60    1
    65    19    61    1
    66    20    62    1
    67    20    63    1
    68    20    64    1
    69    22    65    1
    70    22    66    1
    71    26    67    1
    72    27    68    1
    73    27    69    1
    74    29    70    1
    75    30    71    1
    76    31    72    1
    77    31    73    1
    78    31    74    1
    79    32    75    1
    80    35    76    1
    81    40    77    1
    82    40    78    1
    83    40    79    1
    84    42    80    1
    85    42    81    1
    86    42    82    1
@<TRIPOS>MOLECULE
02228316B
 82 86 0 0 0
SMALL
GASTEIGER

@<TRIPOS>ATOM
      1 C         -11.1074    1.7661    1.7633 C.3     1  LIG1        0.2491
      2 C          -9.6461    2.1291    1.5889 C.2     1  LIG1        0.3556
      3 N         -11.2051    0.4016    1.1907 N.2     1  LIG1       -0.0687
      4 C         -11.5344    1.7415    3.2387 C.3     1  LIG1        0.0059
      5 C         -12.0734    2.7010    1.0388 C.3     1  LIG1        0.0059
      6 N          -9.0559    1.0441    1.0002 N.am    1  LIG1       -0.1529
      7 O          -9.1132    3.1722    1.9326 O.2     1  LIG1       -0.2422
      8 C          -9.9968    0.0998    0.8255 C.cat   1  LIG1        0.2916
      9 C         -12.6765    2.7481    3.3429 C.3     1  LIG1       -0.0481
     10 C         -13.2903    2.7540    1.9536 C.3     1  LIG1       -0.0481
     11 C          -7.6122    0.9614    0.8167 C.3     1  LIG1        0.1137
     12 C          -9.7112   -1.2670    0.2516 C.3     1  LIG1        0.0509
     13 C          -7.0207    1.8982   -0.2200 C.ar    1  LIG1       -0.0073
     14 C          -9.5317   -2.3279    1.3425 C.3     1  LIG1       -0.0424
     15 C          -7.7100    2.3238   -1.3573 C.ar    1  LIG1       -0.0491
     16 C          -5.6867    2.2935   -0.0954 C.ar    1  LIG1       -0.0544
     17 C         -10.8512   -2.7101    2.0259 C.3     1  LIG1       -0.0554
     18 C          -7.1123    3.1769   -2.3275 C.ar    1  LIG1       -0.0138
     19 C          -5.0841    3.1316   -1.0445 C.ar    1  LIG1       -0.0533
     20 C         -10.6932   -3.9217    2.9327 C.3     1  LIG1       -0.0653
     21 C          -5.7849    3.6545   -2.1423 C.ar    1  LIG1       -0.0106
     22 C          -7.9411    3.4552   -3.5721 C.3     1  LIG1        0.0732
     23 C          -5.0915    4.5852   -3.0808 C.ar    1  LIG1        0.0091
     24 O          -7.5371    2.7418   -4.7442 O.3     1  LIG1       -0.3754
     25 C          -4.6247    5.8943   -2.7910 C.ar    1  LIG1        0.1162
     26 C          -4.8795    4.1356   -4.4035 C.ar    1  LIG1       -0.0521
     27 C          -7.3709    1.3307   -4.6323 C.3     1  LIG1        0.0453
     28 S          -4.6617    6.6467   -1.1606 S.O2    1  LIG1        0.0741
     29 C          -4.0814    6.7102   -3.8093 C.ar    1  LIG1       -0.0345
     30 C          -4.3513    4.9512   -5.4090 C.ar    1  LIG1       -0.0611
     31 C          -8.6861    0.5834   -4.5390 C.3     1  LIG1       -0.0416
     32 N          -6.2872    6.9501   -0.9454 N.pl3   1  LIG1       -0.1965
     33 O          -4.2825    5.6562   -0.1750 O.2     1  LIG1       -0.1499
     34 O          -3.9357    7.8978   -1.2063 O.2     1  LIG1       -0.1499
     35 C          -3.9682    6.2482   -5.1156 C.ar    1  LIG1       -0.0599
     36 C          -6.9916    7.8086   -1.7744 C.ar    1  LIG1        0.1837
     37 C          -8.3766    7.7041   -2.0647 C.ar    1  LIG1        0.0342
     38 N          -6.4400    8.8416   -2.4115 N.ar    1  LIG1       -0.0614
     39 C          -8.6091    8.7675   -2.9129 C.ar    1  LIG1        0.1390
     40 C          -9.3461    6.6831   -1.6144 C.3     1  LIG1       -0.0330
     41 O          -7.4545    9.4514   -3.1097 O.2     1  LIG1       -0.3578
     42 C          -9.7892    9.2886   -3.6239 C.3     1  LIG1       -0.0034
     43 H         -10.7257    2.0085    3.9278 H       1  LIG1        0.0316
     44 H         -11.8959    0.7474    3.5317 H       1  LIG1        0.0316
     45 H         -12.3457    2.3493    0.0384 H       1  LIG1        0.0316
     46 H         -11.6464    3.7055    0.9346 H       1  LIG1        0.0316
     47 H         -12.2786    3.7415    3.5821 H       1  LIG1        0.0267
     48 H         -13.3985    2.4764    4.1184 H       1  LIG1        0.0267
     49 H         -13.9135    1.8631    1.8111 H       1  LIG1        0.0267
     50 H         -13.9083    3.6379    1.7736 H       1  LIG1        0.0267
     51 H          -7.3216   -0.0626    0.5656 H       1  LIG1        0.0783
     52 H          -7.1685    1.1975    1.7925 H       1  LIG1        0.0783
     53 H          -8.8155   -1.2287   -0.3743 H       1  LIG1        0.0387
     54 H         -10.5404   -1.5447   -0.4109 H       1  LIG1        0.0387
     55 H          -8.8164   -1.9809    2.0974 H       1  LIG1        0.0271
     56 H          -9.1032   -3.2244    0.8784 H       1  LIG1        0.0271
     57 H          -8.7301    1.9771   -1.5178 H       1  LIG1        0.0625
     58 H          -5.0874    1.9617    0.7516 H       1  LIG1        0.0622
     59 H         -11.6152   -2.9328    1.2716 H       1  LIG1        0.0263
     60 H         -11.2215   -1.8726    2.6266 H       1  LIG1        0.0263
     61 H          -4.0333    3.3842   -0.8998 H       1  LIG1        0.0624
     62 H         -10.3843   -4.8025    2.3607 H       1  LIG1        0.0230
     63 H         -11.6453   -4.1551    3.4208 H       1  LIG1        0.0230
     64 H          -9.9483   -3.7371    3.7130 H       1  LIG1        0.0230
     65 H          -7.8948    4.5254   -3.8041 H       1  LIG1        0.0610
     66 H          -9.0025    3.2462   -3.3915 H       1  LIG1        0.0610
     67 H          -5.1467    3.1180   -4.6790 H       1  LIG1        0.0624
     68 H          -6.7043    1.0711   -3.8040 H       1  LIG1        0.0557
     69 H          -6.8564    1.0087   -5.5448 H       1  LIG1        0.0557
     70 H          -3.7593    7.7290   -3.5932 H       1  LIG1        0.0637
     71 H          -4.2532    4.5673   -6.4211 H       1  LIG1        0.0618
     72 H          -9.2407    0.8521   -3.6368 H       1  LIG1        0.0252
     73 H          -8.5077   -0.4966   -4.5237 H       1  LIG1        0.0252
     74 H          -9.3242    0.8204   -5.3958 H       1  LIG1        0.0252
     75 H          -6.7615    6.2313   -0.4097 H       1  LIG1        0.1753
     76 H          -3.5712    6.8964   -5.8924 H       1  LIG1        0.0618
     77 H          -8.8907    5.9532   -0.9394 H       1  LIG1        0.0280
     78 H          -9.7390    6.1344   -2.4768 H       1  LIG1        0.0280
     79 H         -10.1837    7.1519   -1.0904 H       1  LIG1        0.0280
     80 H         -10.5781    8.5337   -3.6834 H       1  LIG1        0.0309
     81 H          -9.5253    9.5824   -4.6449 H       1  LIG1        0.0309
     82 H         -10.1881   10.1658   -3.1057 H       1  LIG1        0.0309
@<TRIPOS>BOND
     1     1     5    1
     2     1     4    1
     3     1     2    1
     4     1     3    1
     5     2     6   am
     6     2     7    2
     7     3     8    2
     8     4     9    1
     9     5    10    1
    10     6     8    1
    11     6    11    1
    12     8    12    1
    13     9    10    1
    14    11    13    1
    15    12    14    1
    16    13    15   ar
    17    13    16   ar
    18    14    17    1
    19    15    18   ar
    20    16    19   ar
    21    17    20    1
    22    18    21   ar
    23    18    22    1
    24    19    21   ar
    25    21    23    1
    26    22    24    1
    27    23    26   ar
    28    23    25   ar
    29    24    27    1
    30    25    29   ar
    31    25    28    1
    32    26    30   ar
    33    27    31    1
    34    28    34    2
    35    28    33    2
    36    28    32    1
    37    29    35   ar
    38    30    35   ar
    39    32    36    1
    40    36    37   ar
    41    36    38   ar
    42    37    39   ar
    43    37    40    1
    44    38    41   ar
    45    39    41   ar
    46    39    42    1
    47     4    43    1
    48     4    44    1
    49     5    45    1
    50     5    46    1
    51     9    47    1
    52     9    48    1
    53    10    49    1
    54    10    50    1
    55    11    51    1
    56    11    52    1
    57    12    53    1
    58    12    54    1
    59    14    55    1
    60    14    56    1
    61    15    57    1
    62    16    58    1
    63    17    59    1
    64    17    60    1
    65    19    61    1
    66    20    62    1
    67    20    63    1
    68    20    64    1
    69    22    65    1
    70    22    66    1
    71    26    67    1
    72    27    68    1
    73    27    69    1
    74    29    70    1
    75    30    71    1
    76    31    72    1
    77    31    73    1
    78    31    74    1
    79    32    75    1
    80    35    76    1
    81    40    77    1
    82    40    78    1
    83    40    79    1
    84    42    80    1
    85    42    81    1
    86    42    82    1
@<TRIPOS>MOLECULE
02228316B
 82 86 0 0 0
SMALL
GASTEIGER

@<TRIPOS>ATOM
      1 C          -9.7405   -1.7221   -1.1041 C.3     1  LIG1        0.2491
      2 C          -9.8265   -0.2697   -0.6927 C.2     1  LIG1        0.3556
      3 N          -8.7348   -2.2824   -0.1718 N.2     1  LIG1       -0.0687
      4 C         -11.0729   -2.4594   -0.9799 C.3     1  LIG1        0.0059
      5 C          -9.2741   -1.8734   -2.5574 C.3     1  LIG1        0.0059
      6 N          -8.7575   -0.0511    0.1316 N.am    1  LIG1       -0.1529
      7 O         -10.6798    0.5331   -1.0392 O.2     1  LIG1       -0.2422
      8 C          -8.2642   -1.2535    0.4712 C.cat   1  LIG1        0.2916
      9 C         -11.5318   -2.6578   -2.4191 C.3     1  LIG1       -0.0481
     10 C         -10.2326   -2.8869   -3.1724 C.3     1  LIG1       -0.0481
     11 C          -8.4648    1.2719    0.6697 C.3     1  LIG1        0.1137
     12 C          -7.2852   -1.4686    1.5985 C.3     1  LIG1        0.0509
     13 C          -7.7249    2.1979   -0.2852 C.ar    1  LIG1       -0.0073
     14 C          -5.8698   -0.9638    1.3470 C.3     1  LIG1       -0.0424
     15 C          -7.9400    2.1912   -1.6703 C.ar    1  LIG1       -0.0491
     16 C          -6.8827    3.1898    0.2210 C.ar    1  LIG1       -0.0544
     17 C          -4.9236   -1.5264    2.4148 C.3     1  LIG1       -0.0554
     18 C          -7.3025    3.0968   -2.5497 C.ar    1  LIG1       -0.0138
     19 C          -6.2592    4.1114   -0.6341 C.ar    1  LIG1       -0.0533
     20 C          -3.5749   -0.8290    2.4220 C.3     1  LIG1       -0.0653
     21 C          -6.4122    4.0657   -2.0317 C.ar    1  LIG1       -0.0106
     22 C          -7.6679    2.9935   -4.0187 C.3     1  LIG1        0.0732
     23 C          -5.7186    5.0536   -2.8934 C.ar    1  LIG1        0.0091
     24 O          -6.5586    2.6976   -4.8599 O.3     1  LIG1       -0.3754
     25 C          -4.3296    5.1275   -3.1280 C.ar    1  LIG1        0.1162
     26 C          -6.5223    5.9958   -3.5781 C.ar    1  LIG1       -0.0521
     27 C          -6.3005    1.3056   -5.0176 C.3     1  LIG1        0.0453
     28 S          -3.1093    4.1119   -2.3250 S.O2    1  LIG1        0.0741
     29 C          -3.8048    6.0378   -4.0733 C.ar    1  LIG1       -0.0345
     30 C          -5.9981    6.8953   -4.5117 C.ar    1  LIG1       -0.0611
     31 C          -5.2691    0.8250   -4.0163 C.3     1  LIG1       -0.0416
     32 N          -2.2055    5.2401   -1.4359 N.pl3   1  LIG1       -0.1965
     33 O          -3.6724    3.1606   -1.3964 O.2     1  LIG1       -0.1499
     34 O          -2.1879    3.6519   -3.3543 O.2     1  LIG1       -0.1499
     35 C          -4.6371    6.9063   -4.7718 C.ar    1  LIG1       -0.0599
     36 C          -2.6798    5.6475   -0.1970 C.ar    1  LIG1        0.1837
     37 C          -2.1511    5.2768    1.0653 C.ar    1  LIG1        0.0342
     38 N          -3.6792    6.5229   -0.0763 N.ar    1  LIG1       -0.0614
     39 C          -2.9435    5.9646    1.9615 C.ar    1  LIG1        0.1390
     40 C          -1.0535    4.3355    1.3745 C.3     1  LIG1       -0.0330
     41 O          -3.8516    6.7125    1.2831 O.2     1  LIG1       -0.3578
     42 C          -3.0123    6.0451    3.4331 C.3     1  LIG1       -0.0034
     43 H         -11.8228   -1.9115   -0.3997 H       1  LIG1        0.0316
     44 H         -10.9362   -3.4376   -0.5027 H       1  LIG1        0.0316
     45 H          -8.2361   -2.2109   -2.6477 H       1  LIG1        0.0316
     46 H          -9.3575   -0.9234   -3.1002 H       1  LIG1        0.0316
     47 H         -12.0294   -1.7524   -2.7867 H       1  LIG1        0.0267
     48 H         -12.2267   -3.4959   -2.5210 H       1  LIG1        0.0267
     49 H          -9.8671   -3.9052   -2.9944 H       1  LIG1        0.0267
     50 H         -10.3455   -2.7485   -4.2516 H       1  LIG1        0.0267
     51 H          -7.8871    1.1585    1.5923 H       1  LIG1        0.0783
     52 H          -9.4142    1.7539    0.9324 H       1  LIG1        0.0783
     53 H          -7.2534   -2.5484    1.7992 H       1  LIG1        0.0387
     54 H          -7.6945   -0.9990    2.5005 H       1  LIG1        0.0387
     55 H          -5.8508    0.1303    1.3738 H       1  LIG1        0.0271
     56 H          -5.5255   -1.2631    0.3500 H       1  LIG1        0.0271
     57 H          -8.6347    1.4808   -2.1075 H       1  LIG1        0.0625
     58 H          -6.6990    3.2715    1.2902 H       1  LIG1        0.0622
     59 H          -4.7751   -2.5991    2.2405 H       1  LIG1        0.0263
     60 H          -5.3743   -1.4252    3.4094 H       1  LIG1        0.0263
     61 H          -5.6275    4.8727   -0.1859 H       1  LIG1        0.0624
     62 H          -3.0853   -0.8998    1.4465 H       1  LIG1        0.0230
     63 H          -2.9187   -1.2888    3.1688 H       1  LIG1        0.0230
     64 H          -3.6865    0.2290    2.6798 H       1  LIG1        0.0230
     65 H          -8.0930    3.9471   -4.3471 H       1  LIG1        0.0610
     66 H          -8.4761    2.2694   -4.1852 H       1  LIG1        0.0610
     67 H          -7.5976    6.0142   -3.4023 H       1  LIG1        0.0624
     68 H          -5.8965    1.1753   -6.0271 H       1  LIG1        0.0557
     69 H          -7.2189    0.7095   -4.9622 H       1  LIG1        0.0557
     70 H          -2.7351    6.0654   -4.2760 H       1  LIG1        0.0637
     71 H          -6.6611    7.5726   -5.0443 H       1  LIG1        0.0618
     72 H          -4.3888    1.4750   -4.0290 H       1  LIG1        0.0252
     73 H          -4.9596   -0.1983   -4.2468 H       1  LIG1        0.0252
     74 H          -5.6654    0.8366   -2.9982 H       1  LIG1        0.0252
     75 H          -1.2228    4.9948   -1.5140 H       1  LIG1        0.1753
     76 H          -4.2230    7.5898   -5.5087 H       1  LIG1        0.0618
     77 H          -0.6076    3.9187    0.4668 H       1  LIG1        0.0280
     78 H          -1.4266    3.5005    1.9768 H       1  LIG1        0.0280
     79 H          -0.2626    4.8408    1.9376 H       1  LIG1        0.0280
     80 H          -2.2838    5.3768    3.9021 H       1  LIG1        0.0309
     81 H          -4.0079    5.7587    3.7863 H       1  LIG1        0.0309
     82 H          -2.8063    7.0647    3.7732 H       1  LIG1        0.0309
@<TRIPOS>BOND
     1     1     5    1
     2     1     4    1
     3     1     2    1
     4     1     3    1
     5     2     6   am
     6     2     7    2
     7     3     8    2
     8     4     9    1
     9     5    10    1
    10     6     8    1
    11     6    11    1
    12     8    12    1
    13     9    10    1
    14    11    13    1
    15    12    14    1
    16    13    15   ar
    17    13    16   ar
    18    14    17    1
    19    15    18   ar
    20    16    19   ar
    21    17    20    1
    22    18    21   ar
    23    18    22    1
    24    19    21   ar
    25    21    23    1
    26    22    24    1
    27    23    26   ar
    28    23    25   ar
    29    24    27    1
    30    25    29   ar
    31    25    28    1
    32    26    30   ar
    33    27    31    1
    34    28    34    2
    35    28    33    2
    36    28    32    1
    37    29    35   ar
    38    30    35   ar
    39    32    36    1
    40    36    37   ar
    41    36    38   ar
    42    37    39   ar
    43    37    40    1
    44    38    41   ar
    45    39    41   ar
    46    39    42    1
    47     4    43    1
    48     4    44    1
    49     5    45    1
    50     5    46    1
    51     9    47    1
    52     9    48    1
    53    10    49    1
    54    10    50    1
    55    11    51    1
    56    11    52    1
    57    12    53    1
    58    12    54    1
    59    14    55    1
    60    14    56    1
    61    15    57    1
    62    16    58    1
    63    17    59    1
    64    17    60    1
    65    19    61    1
    66    20    62    1
    67    20    63    1
    68    20    64    1
    69    22    65    1
    70    22    66    1
    71    26    67    1
    72    27    68    1
    73    27    69    1
    74    29    70    1
    75    30    71    1
    76    31    72    1
    77    31    73    1
    78    31    74    1
    79    32    75    1
    80    35    76    1
    81    40    77    1
    82    40    78    1
    83    40    79    1
    84    42    80    1
    85    42    81    1
    86    42    82    1
@<TRIPOS>MOLECULE
02228316B
 82 86 0 0 0
SMALL
GASTEIGER

@<TRIPOS>ATOM
      1 C         -11.5620    0.6476    1.3292 C.3     1  LIG1        0.2491
      2 C         -10.3186    0.2987    0.5362 C.2     1  LIG1        0.3556
      3 N         -11.1136    1.7350    2.2359 N.2     1  LIG1       -0.0687
      4 C         -12.7437    1.1156    0.4785 C.3     1  LIG1        0.0059
      5 C         -12.0552   -0.5395    2.1627 C.3     1  LIG1        0.0059
      6 N          -9.3090    1.0267    1.0964 N.am    1  LIG1       -0.1529
      7 O         -10.2379   -0.4951   -0.3881 O.2     1  LIG1       -0.2422
      8 C          -9.8352    1.8354    2.0361 C.cat   1  LIG1        0.2916
      9 C         -13.8639    0.1169    0.7628 C.3     1  LIG1       -0.0481
     10 C         -13.5686   -0.3886    2.1647 C.3     1  LIG1       -0.0481
     11 C          -7.9222    0.8730    0.6956 C.3     1  LIG1        0.1137
     12 C          -8.9665    2.8089    2.7998 C.3     1  LIG1        0.0509
     13 C          -7.4543    1.9334   -0.2639 C.ar    1  LIG1       -0.0073
     14 C          -9.7017    3.6672    3.8290 C.3     1  LIG1       -0.0424
     15 C          -7.8984    1.9888   -1.5786 C.ar    1  LIG1       -0.0491
     16 C          -6.5684    2.9118    0.1250 C.ar    1  LIG1       -0.0544
     17 C         -10.0996    2.8903    5.0856 C.3     1  LIG1       -0.0554
     18 C          -7.4239    2.9571   -2.5283 C.ar    1  LIG1       -0.0138
     19 C          -6.1288    3.8752   -0.7953 C.ar    1  LIG1       -0.0533
     20 C         -10.7655    3.8020    6.1053 C.3     1  LIG1       -0.0653
     21 C          -6.4245    3.9219   -2.1641 C.ar    1  LIG1       -0.0106
     22 C          -8.1474    2.8252   -3.8594 C.3     1  LIG1        0.0732
     23 C          -5.6957    4.9433   -3.0733 C.ar    1  LIG1        0.0091
     24 O          -7.3198    2.4504   -4.9516 O.3     1  LIG1       -0.3754
     25 C          -4.4351    5.6203   -2.8874 C.ar    1  LIG1        0.1162
     26 C          -6.3132    5.2920   -4.3041 C.ar    1  LIG1       -0.0521
     27 C          -6.8159    1.1166   -4.8899 C.3     1  LIG1        0.0453
     28 S          -3.3400    5.6217   -1.4454 S.O2    1  LIG1        0.0741
     29 C          -3.8768    6.4396   -3.9205 C.ar    1  LIG1       -0.0345
     30 C          -5.7495    6.0921   -5.3118 C.ar    1  LIG1       -0.0611
     31 C          -7.9058    0.0610   -4.9994 C.3     1  LIG1       -0.0416
     32 N          -3.9323    6.9283   -0.5343 N.pl3   1  LIG1       -0.1965
     33 O          -3.3957    4.3813   -0.7121 O.2     1  LIG1       -0.1499
     34 O          -2.0294    6.0909   -1.8709 O.2     1  LIG1       -0.1499
     35 C          -4.5136    6.6564   -5.1285 C.ar    1  LIG1       -0.0599
     36 C          -4.7619    6.7216    0.5605 C.ar    1  LIG1        0.1837
     37 C          -4.4054    6.2244    1.8403 C.ar    1  LIG1        0.0342
     38 N          -6.0634    7.0107    0.4910 N.ar    1  LIG1       -0.0614
     39 C          -5.6148    6.1442    2.5019 C.ar    1  LIG1        0.1390
     40 C          -3.0778    5.8139    2.3447 C.3     1  LIG1       -0.0330
     41 O          -6.6028    6.6191    1.6998 O.2     1  LIG1       -0.3578
     42 C          -6.0385    5.6440    3.8237 C.3     1  LIG1       -0.0034
     43 H         -12.5197    1.1482   -0.5929 H       1  LIG1        0.0316
     44 H         -13.0697    2.1201    0.7753 H       1  LIG1        0.0316
     45 H         -11.6541   -0.5509    3.1820 H       1  LIG1        0.0316
     46 H         -11.7838   -1.4920    1.6905 H       1  LIG1        0.0316
     47 H         -13.8151   -0.7124    0.0471 H       1  LIG1        0.0267
     48 H         -14.8551    0.5731    0.6862 H       1  LIG1        0.0267
     49 H         -13.8756    0.3531    2.9115 H       1  LIG1        0.0267
     50 H         -14.0786   -1.3305    2.3854 H       1  LIG1        0.0267
     51 H          -7.7825   -0.1101    0.2294 H       1  LIG1        0.0783
     52 H          -7.3018    0.8817    1.5990 H       1  LIG1        0.0783
     53 H          -8.5185    3.4853    2.0648 H       1  LIG1        0.0387
     54 H          -8.1500    2.2583    3.2797 H       1  LIG1        0.0387
     55 H         -10.5889    4.1256    3.3756 H       1  LIG1        0.0271
     56 H          -9.0387    4.4903    4.1229 H       1  LIG1        0.0271
     57 H          -8.6393    1.2503   -1.8916 H       1  LIG1        0.0625
     58 H          -6.1938    2.9630    1.1447 H       1  LIG1        0.0622
     59 H          -9.2129    2.4319    5.5381 H       1  LIG1        0.0263
     60 H         -10.7899    2.0782    4.8354 H       1  LIG1        0.0263
     61 H          -5.5224    4.6327   -0.3527 H       1  LIG1        0.0624
     62 H         -10.0791    4.5893    6.4332 H       1  LIG1        0.0230
     63 H         -11.0700    3.2283    6.9861 H       1  LIG1        0.0230
     64 H         -11.6573    4.2773    5.6840 H       1  LIG1        0.0230
     65 H          -8.6701    3.7604   -4.0824 H       1  LIG1        0.0610
     66 H          -8.9890    2.1253   -3.7959 H       1  LIG1        0.0610
     67 H          -7.3037    4.9540   -4.5549 H       1  LIG1        0.0624
     68 H          -6.2167    0.9733   -3.9849 H       1  LIG1        0.0557
     69 H          -6.1376    1.0051   -5.7418 H       1  LIG1        0.0557
     70 H          -2.9148    6.9349   -3.7894 H       1  LIG1        0.0637
     71 H          -6.2962    6.2577   -6.2371 H       1  LIG1        0.0618
     72 H          -8.5181    0.0209   -4.0932 H       1  LIG1        0.0252
     73 H          -7.4672   -0.9308   -5.1409 H       1  LIG1        0.0252
     74 H          -8.5786    0.2786   -5.8349 H       1  LIG1        0.0252
     75 H          -3.1501    7.5588   -0.3694 H       1  LIG1        0.1753
     76 H          -4.0576    7.2723   -5.8975 H       1  LIG1        0.0618
     77 H          -2.2819    6.0607    1.6361 H       1  LIG1        0.0280
     78 H          -3.0533    4.7344    2.5239 H       1  LIG1        0.0280
     79 H          -2.8551    6.3251    3.2870 H       1  LIG1        0.0280
     80 H          -5.2381    5.7532    4.5611 H       1  LIG1        0.0309
     81 H          -6.3010    4.5830    3.7585 H       1  LIG1        0.0309
     82 H          -6.9136    6.1896    4.1903 H       1  LIG1        0.0309
@<TRIPOS>BOND
     1     1     5    1
     2     1     4    1
     3     1     2    1
     4     1     3    1
     5     2     6   am
     6     2     7    2
     7     3     8    2
     8     4     9    1
     9     5    10    1
    10     6     8    1
    11     6    11    1
    12     8    12    1
    13     9    10    1
    14    11    13    1
    15    12    14    1
    16    13    15   ar
    17    13    16   ar
    18    14    17    1
    19    15    18   ar
    20    16    19   ar
    21    17    20    1
    22    18    21   ar
    23    18    22    1
    24    19    21   ar
    25    21    23    1
    26    22    24    1
    27    23    26   ar
    28    23    25   ar
    29    24    27    1
    30    25    29   ar
    31    25    28    1
    32    26    30   ar
    33    27    31    1
    34    28    34    2
    35    28    33    2
    36    28    32    1
    37    29    35   ar
    38    30    35   ar
    39    32    36    1
    40    36    37   ar
    41    36    38   ar
    42    37    39   ar
    43    37    40    1
    44    38    41   ar
    45    39    41   ar
    46    39    42    1
    47     4    43    1
    48     4    44    1
    49     5    45    1
    50     5    46    1
    51     9    47    1
    52     9    48    1
    53    10    49    1
    54    10    50    1
    55    11    51    1
    56    11    52    1
    57    12    53    1
    58    12    54    1
    59    14    55    1
    60    14    56    1
    61    15    57    1
    62    16    58    1
    63    17    59    1
    64    17    60    1
    65    19    61    1
    66    20    62    1
    67    20    63    1
    68    20    64    1
    69    22    65    1
    70    22    66    1
    71    26    67    1
    72    27    68    1
    73    27    69    1
    74    29    70    1
    75    30    71    1
    76    31    72    1
    77    31    73    1
    78    31    74    1
    79    32    75    1
    80    35    76    1
    81    40    77    1
    82    40    78    1
    83    40    79    1
    84    42    80    1
    85    42    81    1
    86    42    82    1
@<TRIPOS>MOLECULE
02228316B
 82 86 0 0 0
SMALL
GASTEIGER

@<TRIPOS>ATOM
      1 C         -11.2775    1.5495    2.0691 C.3     1  LIG1        0.2491
      2 C          -9.8244    1.8901    1.8327 C.2     1  LIG1        0.3556
      3 N         -11.3795    0.1376    1.6224 N.2     1  LIG1       -0.0687
      4 C         -11.7206    1.6881    3.5261 C.3     1  LIG1        0.0059
      5 C         -12.2154    2.4214    1.2290 C.3     1  LIG1        0.0059
      6 N          -9.3435    0.8918    1.0268 N.am    1  LIG1       -0.1529
      7 O          -9.2098    2.8322    2.3074 O.2     1  LIG1       -0.2422
      8 C         -10.2467   -0.1089    1.0389 C.cat   1  LIG1        0.2916
      9 C         -12.8120    2.7552    3.5091 C.3     1  LIG1       -0.0481
     10 C         -13.4268    2.6317    2.1255 C.3     1  LIG1       -0.0481
     11 C          -7.9580    0.8388    0.5999 C.3     1  LIG1        0.1137
     12 C          -9.9288   -1.4506    0.4177 C.3     1  LIG1        0.0509
     13 C          -7.5871    1.9390   -0.3644 C.ar    1  LIG1       -0.0073
     14 C         -11.0090   -2.5227    0.5764 C.3     1  LIG1       -0.0424
     15 C          -7.8265    1.8260   -1.7388 C.ar    1  LIG1       -0.0491
     16 C          -7.0042    3.1129    0.1085 C.ar    1  LIG1       -0.0544
     17 C         -12.3125   -2.2878   -0.1936 C.3     1  LIG1       -0.0554
     18 C          -7.3832    2.8154   -2.6491 C.ar    1  LIG1       -0.0138
     19 C          -6.5664    4.0928   -0.7801 C.ar    1  LIG1       -0.0533
     20 C         -12.1198   -2.0848   -1.6870 C.3     1  LIG1       -0.0653
     21 C          -6.6371    3.9188   -2.1687 C.ar    1  LIG1       -0.0106
     22 C          -7.8130    2.6770   -4.0953 C.3     1  LIG1        0.0732
     23 C          -5.9480    4.9005   -3.0331 C.ar    1  LIG1        0.0091
     24 O          -6.7435    2.5047   -5.0134 O.3     1  LIG1       -0.3754
     25 C          -4.5436    5.0540   -3.1319 C.ar    1  LIG1        0.1162
     26 C          -6.7386    5.7776   -3.8071 C.ar    1  LIG1       -0.0521
     27 C          -6.2867    1.1586   -5.0846 C.3     1  LIG1        0.0453
     28 S          -3.3271    4.1017   -2.2123 S.O2    1  LIG1        0.0741
     29 C          -3.9850    5.9898   -4.0318 C.ar    1  LIG1       -0.0345
     30 C          -6.1772    6.7103   -4.6845 C.ar    1  LIG1       -0.0611
     31 C          -5.4736    1.0097   -6.3549 C.3     1  LIG1       -0.0416
     32 N          -2.7218    5.2551   -1.1097 N.pl3   1  LIG1       -0.1965
     33 O          -3.9311    3.0043   -1.4937 O.2     1  LIG1       -0.1499
     34 O          -2.2361    3.8414   -3.1336 O.2     1  LIG1       -0.1499
     35 C          -4.7996    6.8088   -4.8060 C.ar    1  LIG1       -0.0599
     36 C          -3.4588    5.5686    0.0269 C.ar    1  LIG1        0.1837
     37 C          -3.6811    4.7770    1.1814 C.ar    1  LIG1        0.0342
     38 N          -4.0006    6.7823    0.1458 N.ar    1  LIG1       -0.0614
     39 C          -4.5234    5.5585    1.9467 C.ar    1  LIG1        0.1390
     40 C          -3.1689    3.4253    1.4975 C.3     1  LIG1       -0.0330
     41 O          -4.7032    6.7608    1.3370 O.2     1  LIG1       -0.3578
     42 C          -5.2598    5.3590    3.2103 C.3     1  LIG1       -0.0034
     43 H         -10.9098    1.9782    4.2024 H       1  LIG1        0.0316
     44 H         -12.1376    0.7461    3.9021 H       1  LIG1        0.0316
     45 H         -12.5009    1.9617    0.2765 H       1  LIG1        0.0316
     46 H         -11.7531    3.3906    1.0036 H       1  LIG1        0.0316
     47 H         -12.3657    3.7489    3.6347 H       1  LIG1        0.0267
     48 H         -13.5461    2.6088    4.3065 H       1  LIG1        0.0267
     49 H         -14.0889    1.7590    2.0793 H       1  LIG1        0.0267
     50 H         -14.0033    3.5168    1.8432 H       1  LIG1        0.0267
     51 H          -7.7297   -0.1265    0.1373 H       1  LIG1        0.0783
     52 H          -7.3285    0.9046    1.4964 H       1  LIG1        0.0783
     53 H          -9.0209   -1.8231    0.9087 H       1  LIG1        0.0387
     54 H          -9.6764   -1.3003   -0.6371 H       1  LIG1        0.0387
     55 H         -11.2504   -2.6440    1.6398 H       1  LIG1        0.0271
     56 H         -10.5854   -3.4805    0.2478 H       1  LIG1        0.0271
     57 H          -8.3588    0.9534   -2.1142 H       1  LIG1        0.0625
     58 H          -6.8645    3.2704    1.1758 H       1  LIG1        0.0622
     59 H         -12.8566   -1.4314    0.2172 H       1  LIG1        0.0263
     60 H         -12.9594   -3.1606   -0.0401 H       1  LIG1        0.0263
     61 H          -6.1294    4.9989   -0.3763 H       1  LIG1        0.0624
     62 H         -11.6090   -1.1405   -1.8979 H       1  LIG1        0.0230
     63 H         -13.0924   -2.0520   -2.1886 H       1  LIG1        0.0230
     64 H         -11.5392   -2.9024   -2.1248 H       1  LIG1        0.0230
     65 H          -8.3565    3.5831   -4.3846 H       1  LIG1        0.0610
     66 H          -8.5497    1.8719   -4.2173 H       1  LIG1        0.0610
     67 H          -7.8240    5.7335   -3.7344 H       1  LIG1        0.0624
     68 H          -7.1321    0.4620   -5.1191 H       1  LIG1        0.0557
     69 H          -5.6723    0.9356   -4.2073 H       1  LIG1        0.0557
     70 H          -2.9050    6.0761   -4.1470 H       1  LIG1        0.0637
     71 H          -6.8231    7.3500   -5.2807 H       1  LIG1        0.0618
     72 H          -6.0910    1.2371   -7.2316 H       1  LIG1        0.0252
     73 H          -5.0865   -0.0077   -6.4543 H       1  LIG1        0.0252
     74 H          -4.6367    1.7151   -6.3653 H       1  LIG1        0.0252
     75 H          -2.4874    6.1033   -1.6225 H       1  LIG1        0.1753
     76 H          -4.3587    7.5206   -5.5000 H       1  LIG1        0.0618
     77 H          -2.3176    3.1602    0.8631 H       1  LIG1        0.0280
     78 H          -3.9515    2.6736    1.3624 H       1  LIG1        0.0280
     79 H          -2.8266    3.3798    2.5373 H       1  LIG1        0.0280
     80 H          -4.9359    4.4462    3.7195 H       1  LIG1        0.0309
     81 H          -6.3330    5.2697    3.0091 H       1  LIG1        0.0309
     82 H          -5.1067    6.2022    3.8892 H       1  LIG1        0.0309
@<TRIPOS>BOND
     1     1     5    1
     2     1     4    1
     3     1     2    1
     4     1     3    1
     5     2     6   am
     6     2     7    2
     7     3     8    2
     8     4     9    1
     9     5    10    1
    10     6     8    1
    11     6    11    1
    12     8    12    1
    13     9    10    1
    14    11    13    1
    15    12    14    1
    16    13    15   ar
    17    13    16   ar
    18    14    17    1
    19    15    18   ar
    20    16    19   ar
    21    17    20    1
    22    18    21   ar
    23    18    22    1
    24    19    21   ar
    25    21    23    1
    26    22    24    1
    27    23    26   ar
    28    23    25   ar
    29    24    27    1
    30    25    29   ar
    31    25    28    1
    32    26    30   ar
    33    27    31    1
    34    28    34    2
    35    28    33    2
    36    28    32    1
    37    29    35   ar
    38    30    35   ar
    39    32    36    1
    40    36    37   ar
    41    36    38   ar
    42    37    39   ar
    43    37    40    1
    44    38    41   ar
    45    39    41   ar
    46    39    42    1
    47     4    43    1
    48     4    44    1
    49     5    45    1
    50     5    46    1
    51     9    47    1
    52     9    48    1
    53    10    49    1
    54    10    50    1
    55    11    51    1
    56    11    52    1
    57    12    53    1
    58    12    54    1
    59    14    55    1
    60    14    56    1
    61    15    57    1
    62    16    58    1
    63    17    59    1
    64    17    60    1
    65    19    61    1
    66    20    62    1
    67    20    63    1
    68    20    64    1
    69    22    65    1
    70    22    66    1
    71    26    67    1
    72    27    68    1
    73    27    69    1
    74    29    70    1
    75    30    71    1
    76    31    72    1
    77    31    73    1
    78    31    74    1
    79    32    75    1
    80    35    76    1
    81    40    77    1
    82    40    78    1
    83    40    79    1
    84    42    80    1
    85    42    81    1
    86    42    82    1
@<TRIPOS>MOLECULE
02228316B
 82 86 0 0 0
SMALL
GASTEIGER

@<TRIPOS>ATOM
      1 C         -11.1518    1.6072    1.9914 C.3     1  LIG1        0.2491
      2 C          -9.6900    1.9128    1.7312 C.2     1  LIG1        0.3556
      3 N         -11.2958    0.1917    1.5655 N.2     1  LIG1       -0.0687
      4 C         -11.5693    1.7647    3.4565 C.3     1  LIG1        0.0059
      5 C         -12.0935    2.4871    1.1665 C.3     1  LIG1        0.0059
      6 N          -9.2163    0.8520    1.0091 N.am    1  LIG1       -0.1529
      7 O          -9.0697    2.8875    2.1280 O.2     1  LIG1       -0.2422
      8 C         -10.1547   -0.1159    1.0303 C.cat   1  LIG1        0.2916
      9 C         -12.7107    2.7795    3.4463 C.3     1  LIG1       -0.0481
     10 C         -13.3155    2.6514    2.0588 C.3     1  LIG1       -0.0481
     11 C          -7.8172    0.7259    0.6377 C.3     1  LIG1        0.1137
     12 C          -9.8672   -1.4853    0.4563 C.3     1  LIG1        0.0509
     13 C          -7.3524    1.7872   -0.3279 C.ar    1  LIG1       -0.0073
     14 C         -10.9668   -2.5259    0.6676 C.3     1  LIG1       -0.0424
     15 C          -7.7832    1.8151   -1.6575 C.ar    1  LIG1       -0.0491
     16 C          -6.4839    2.7832    0.0954 C.ar    1  LIG1       -0.0544
     17 C         -12.1761   -2.3236   -0.2477 C.3     1  LIG1       -0.0554
     18 C          -7.3190    2.7901   -2.5847 C.ar    1  LIG1       -0.0138
     19 C          -6.0342    3.7516   -0.8042 C.ar    1  LIG1       -0.0533
     20 C         -13.1983   -3.4346   -0.0577 C.3     1  LIG1       -0.0653
     21 C          -6.3744    3.7674   -2.1669 C.ar    1  LIG1       -0.0106
     22 C          -7.9979    2.7672   -3.9444 C.3     1  LIG1        0.0732
     23 C          -5.7965    4.8302   -3.0465 C.ar    1  LIG1        0.0091
     24 O          -7.0891    2.8489   -5.0340 O.3     1  LIG1       -0.3754
     25 C          -4.4209    5.1182   -3.2547 C.ar    1  LIG1        0.1162
     26 C          -6.7028    5.6773   -3.7280 C.ar    1  LIG1       -0.0521
     27 C          -7.7435    2.7520   -6.3000 C.3     1  LIG1        0.0453
     28 S          -3.0655    4.3794   -2.3379 S.O2    1  LIG1        0.0741
     29 C          -4.0114    6.0854   -4.1957 C.ar    1  LIG1       -0.0345
     30 C          -6.2878    6.6582   -4.6382 C.ar    1  LIG1       -0.0611
     31 C          -8.4158    4.0547   -6.7032 C.3     1  LIG1       -0.0416
     32 N          -3.0141    5.2721   -0.8991 N.pl3   1  LIG1       -0.1965
     33 O          -3.4216    3.0271   -1.9574 O.2     1  LIG1       -0.1499
     34 O          -1.8250    4.6028   -3.0611 O.2     1  LIG1       -0.1499
     35 C          -4.9408    6.8473   -4.8903 C.ar    1  LIG1       -0.0599
     36 C          -3.2151    6.6497   -0.9041 C.ar    1  LIG1        0.1837
     37 C          -4.1717    7.3619   -0.1250 C.ar    1  LIG1        0.0342
     38 N          -2.5002    7.4783   -1.6671 N.ar    1  LIG1       -0.0614
     39 C          -3.9896    8.6745   -0.5091 C.ar    1  LIG1        0.1390
     40 C          -5.1992    6.8628    0.8164 C.3     1  LIG1       -0.0330
     41 O          -2.9817    8.7450   -1.4153 O.2     1  LIG1       -0.3578
     42 C          -4.6483    9.9464   -0.1570 C.3     1  LIG1       -0.0034
     43 H         -10.7567    2.1117    4.1037 H       1  LIG1        0.0316
     44 H         -11.9295    0.8144    3.8690 H       1  LIG1        0.0316
     45 H         -12.3628    2.0485    0.1996 H       1  LIG1        0.0316
     46 H         -11.6444    3.4691    0.9729 H       1  LIG1        0.0316
     47 H         -12.3118    3.7910    3.5892 H       1  LIG1        0.0267
     48 H         -13.4407    2.5889    4.2384 H       1  LIG1        0.0267
     49 H         -13.9517    1.7601    2.0015 H       1  LIG1        0.0267
     50 H         -13.9179    3.5217    1.7838 H       1  LIG1        0.0267
     51 H          -7.6166   -0.2541    0.1945 H       1  LIG1        0.0783
     52 H          -7.2308    0.7747    1.5639 H       1  LIG1        0.0783
     53 H          -8.9597   -1.8579    0.9470 H       1  LIG1        0.0387
     54 H          -9.6403   -1.3761   -0.6104 H       1  LIG1        0.0387
     55 H         -11.2885   -2.5291    1.7163 H       1  LIG1        0.0271
     56 H         -10.5395   -3.5165    0.4667 H       1  LIG1        0.0271
     57 H          -8.5050    1.0678   -1.9847 H       1  LIG1        0.0625
     58 H          -6.1547    2.8275    1.1307 H       1  LIG1        0.0622
     59 H         -11.8538   -2.3071   -1.2950 H       1  LIG1        0.0263
     60 H         -12.6590   -1.3627   -0.0437 H       1  LIG1        0.0263
     61 H          -5.3970    4.5206   -0.4063 H       1  LIG1        0.0624
     62 H         -12.7716   -4.4077   -0.3213 H       1  LIG1        0.0230
     63 H         -14.0700   -3.2620   -0.6963 H       1  LIG1        0.0230
     64 H         -13.5410   -3.4801    0.9811 H       1  LIG1        0.0230
     65 H          -8.7238    3.5869   -3.9749 H       1  LIG1        0.0610
     66 H          -8.5682    1.8365   -4.0517 H       1  LIG1        0.0610
     67 H          -7.7710    5.5735   -3.5621 H       1  LIG1        0.0624
     68 H          -8.4657    1.9268   -6.2971 H       1  LIG1        0.0557
     69 H          -6.9758    2.5067   -7.0406 H       1  LIG1        0.0557
     70 H          -2.9523    6.2848   -4.3662 H       1  LIG1        0.0637
     71 H          -7.0255    7.2641   -5.1573 H       1  LIG1        0.0618
     72 H          -9.2002    4.3435   -5.9973 H       1  LIG1        0.0252
     73 H          -8.8701    3.9627   -7.6942 H       1  LIG1        0.0252
     74 H          -7.6882    4.8711   -6.7277 H       1  LIG1        0.0252
     75 H          -3.3677    4.7263   -0.1218 H       1  LIG1        0.1753
     76 H          -4.6056    7.5982   -5.6006 H       1  LIG1        0.0618
     77 H          -4.8491    5.9807    1.3612 H       1  LIG1        0.0280
     78 H          -6.1106    6.6007    0.2681 H       1  LIG1        0.0280
     79 H          -5.4691    7.6228    1.5550 H       1  LIG1        0.0280
     80 H          -5.7148    9.7911    0.0341 H       1  LIG1        0.0309
     81 H          -4.5581   10.6774   -0.9665 H       1  LIG1        0.0309
     82 H          -4.1977   10.3719    0.7449 H       1  LIG1        0.0309
@<TRIPOS>BOND
     1     1     5    1
     2     1     4    1
     3     1     2    1
     4     1     3    1
     5     2     6   am
     6     2     7    2
     7     3     8    2
     8     4     9    1
     9     5    10    1
    10     6     8    1
    11     6    11    1
    12     8    12    1
    13     9    10    1
    14    11    13    1
    15    12    14    1
    16    13    15   ar
    17    13    16   ar
    18    14    17    1
    19    15    18   ar
    20    16    19   ar
    21    17    20    1
    22    18    21   ar
    23    18    22    1
    24    19    21   ar
    25    21    23    1
    26    22    24    1
    27    23    26   ar
    28    23    25   ar
    29    24    27    1
    30    25    29   ar
    31    25    28    1
    32    26    30   ar
    33    27    31    1
    34    28    34    2
    35    28    33    2
    36    28    32    1
    37    29    35   ar
    38    30    35   ar
    39    32    36    1
    40    36    37   ar
    41    36    38   ar
    42    37    39   ar
    43    37    40    1
    44    38    41   ar
    45    39    41   ar
    46    39    42    1
    47     4    43    1
    48     4    44    1
    49     5    45    1
    50     5    46    1
    51     9    47    1
    52     9    48    1
    53    10    49    1
    54    10    50    1
    55    11    51    1
    56    11    52    1
    57    12    53    1
    58    12    54    1
    59    14    55    1
    60    14    56    1
    61    15    57    1
    62    16    58    1
    63    17    59    1
    64    17    60    1
    65    19    61    1
    66    20    62    1
    67    20    63    1
    68    20    64    1
    69    22    65    1
    70    22    66    1
    71    26    67    1
    72    27    68    1
    73    27    69    1
    74    29    70    1
    75    30    71    1
    76    31    72    1
    77    31    73    1
    78    31    74    1
    79    32    75    1
    80    35    76    1
    81    40    77    1
    82    40    78    1
    83    40    79    1
    84    42    80    1
    85    42    81    1
    86    42    82    1
@<TRIPOS>MOLECULE
02228316B
 82 86 0 0 0
SMALL
GASTEIGER

@<TRIPOS>ATOM
      1 C         -11.1571    1.5901    1.9836 C.3     1  LIG1        0.2491
      2 C          -9.6945    1.8995    1.7310 C.2     1  LIG1        0.3556
      3 N         -11.2934    0.1763    1.5559 N.2     1  LIG1       -0.0687
      4 C         -11.5813    1.7455    3.4465 C.3     1  LIG1        0.0059
      5 C         -12.0951    2.4695    1.1544 C.3     1  LIG1        0.0059
      6 N          -9.2169    0.8418    1.0059 N.am    1  LIG1       -0.1529
      7 O          -9.0786    2.8719    2.1334 O.2     1  LIG1       -0.2422
      8 C         -10.1531   -0.1273    1.0186 C.cat   1  LIG1        0.2916
      9 C         -12.7116    2.7720    3.4329 C.3     1  LIG1       -0.0481
     10 C         -13.3164    2.6453    2.0452 C.3     1  LIG1       -0.0481
     11 C          -7.8156    0.7226    0.6380 C.3     1  LIG1        0.1137
     12 C          -9.8632   -1.4924    0.4394 C.3     1  LIG1        0.0509
     13 C          -7.3561    1.7860   -0.3281 C.ar    1  LIG1       -0.0073
     14 C         -10.9740   -2.5311    0.6031 C.3     1  LIG1       -0.0424
     15 C          -7.7735    1.7991   -1.6622 C.ar    1  LIG1       -0.0491
     16 C          -6.5112    2.8014    0.1002 C.ar    1  LIG1       -0.0544
     17 C         -12.2637   -2.2773   -0.1839 C.3     1  LIG1       -0.0554
     18 C          -7.3182    2.7779   -2.5882 C.ar    1  LIG1       -0.0138
     19 C          -6.0695    3.7738   -0.7981 C.ar    1  LIG1       -0.0533
     20 C         -12.0505   -2.0692   -1.6737 C.3     1  LIG1       -0.0653
     21 C          -6.3964    3.7732   -2.1642 C.ar    1  LIG1       -0.0106
     22 C          -7.9805    2.7427   -3.9557 C.3     1  LIG1        0.0732
     23 C          -5.8296    4.8368   -3.0447 C.ar    1  LIG1        0.0091
     24 O          -7.0602    2.8402   -5.0340 O.3     1  LIG1       -0.3754
     25 C          -4.4541    5.1172   -3.2611 C.ar    1  LIG1        0.1162
     26 C          -6.7399    5.6843   -3.7186 C.ar    1  LIG1       -0.0521
     27 C          -7.6987    2.7423   -6.3084 C.3     1  LIG1        0.0453
     28 S          -3.0994    4.3634   -2.3549 S.O2    1  LIG1        0.0741
     29 C          -4.0509    6.0903   -4.2038 C.ar    1  LIG1       -0.0345
     30 C          -6.3320    6.6685   -4.6263 C.ar    1  LIG1       -0.0611
     31 C          -8.3800    4.0397   -6.7136 C.3     1  LIG1       -0.0416
     32 N          -3.0358    5.2605   -0.9164 N.pl3   1  LIG1       -0.1965
     33 O          -3.4610    3.0179   -1.9751 O.2     1  LIG1       -0.1499
     34 O          -1.8652    4.5885   -3.0852 O.2     1  LIG1       -0.1499
     35 C          -4.9858    6.8567   -4.8876 C.ar    1  LIG1       -0.0599
     36 C          -3.2181    6.6415   -0.9200 C.ar    1  LIG1        0.1837
     37 C          -4.1452    7.3666   -0.1161 C.ar    1  LIG1        0.0342
     38 N          -2.5180    7.4611   -1.7055 N.ar    1  LIG1       -0.0614
     39 C          -3.9703    8.6738   -0.5201 C.ar    1  LIG1        0.1390
     40 C          -5.1433    6.8794    0.8623 C.3     1  LIG1       -0.0330
     41 O          -2.9873    8.7328   -1.4527 O.2     1  LIG1       -0.3578
     42 C          -4.6188    9.9516   -0.1662 C.3     1  LIG1       -0.0034
     43 H         -10.7693    2.0796    4.1008 H       1  LIG1        0.0316
     44 H         -11.9554    0.7968    3.8518 H       1  LIG1        0.0316
     45 H         -12.3670    2.0263    0.1897 H       1  LIG1        0.0316
     46 H         -11.6419    3.4482    0.9541 H       1  LIG1        0.0316
     47 H         -12.3020    3.7797    3.5727 H       1  LIG1        0.0267
     48 H         -13.4441    2.5915    4.2250 H       1  LIG1        0.0267
     49 H         -13.9593    1.7587    1.9895 H       1  LIG1        0.0267
     50 H         -13.9118    3.5196    1.7676 H       1  LIG1        0.0267
     51 H          -7.6087   -0.2579    0.1979 H       1  LIG1        0.0783
     52 H          -7.2309    0.7766    1.5650 H       1  LIG1        0.0783
     53 H          -8.9746   -1.8777    0.9554 H       1  LIG1        0.0387
     54 H          -9.5883   -1.3750   -0.6141 H       1  LIG1        0.0387
     55 H         -11.2288   -2.6289    1.6659 H       1  LIG1        0.0271
     56 H         -10.5716   -3.5046    0.2943 H       1  LIG1        0.0271
     57 H          -8.4786    1.0373   -1.9938 H       1  LIG1        0.0625
     58 H          -6.1961    2.8569    1.1401 H       1  LIG1        0.0622
     59 H         -12.8033   -1.4170    0.2245 H       1  LIG1        0.0263
     60 H         -12.9228   -3.1428   -0.0424 H       1  LIG1        0.0263
     61 H          -5.4511    4.5594   -0.3997 H       1  LIG1        0.0624
     62 H         -11.5288   -1.1285   -1.8735 H       1  LIG1        0.0230
     63 H         -13.0165   -2.0250   -2.1869 H       1  LIG1        0.0230
     64 H         -11.4719   -2.8900   -2.1083 H       1  LIG1        0.0230
     65 H          -8.7187    3.5509   -3.9941 H       1  LIG1        0.0610
     66 H          -8.5339    1.8022   -4.0692 H       1  LIG1        0.0610
     67 H          -7.8086    5.5765   -3.5448 H       1  LIG1        0.0624
     68 H          -8.4118    1.9095   -6.3175 H       1  LIG1        0.0557
     69 H          -6.9196    2.5090   -7.0408 H       1  LIG1        0.0557
     70 H          -2.9936    6.2880   -4.3824 H       1  LIG1        0.0637
     71 H          -7.0731    7.2767   -5.1380 H       1  LIG1        0.0618
     72 H          -9.1753    4.3174   -6.0155 H       1  LIG1        0.0252
     73 H          -8.8222    3.9470   -7.7101 H       1  LIG1        0.0252
     74 H          -7.6609    4.8637   -6.7270 H       1  LIG1        0.0252
     75 H          -3.3924    4.7183   -0.1384 H       1  LIG1        0.1753
     76 H          -4.6558    7.6108   -5.5973 H       1  LIG1        0.0618
     77 H          -4.7883    5.9885    1.3879 H       1  LIG1        0.0280
     78 H          -6.0807    6.6371    0.3500 H       1  LIG1        0.0280
     79 H          -5.3690    7.6411    1.6151 H       1  LIG1        0.0280
     80 H          -5.6863    9.8029    0.0271 H       1  LIG1        0.0309
     81 H          -4.5259   10.6813   -0.9763 H       1  LIG1        0.0309
     82 H          -4.1634   10.3739    0.7342 H       1  LIG1        0.0309
@<TRIPOS>BOND
     1     1     5    1
     2     1     4    1
     3     1     2    1
     4     1     3    1
     5     2     6   am
     6     2     7    2
     7     3     8    2
     8     4     9    1
     9     5    10    1
    10     6     8    1
    11     6    11    1
    12     8    12    1
    13     9    10    1
    14    11    13    1
    15    12    14    1
    16    13    15   ar
    17    13    16   ar
    18    14    17    1
    19    15    18   ar
    20    16    19   ar
    21    17    20    1
    22    18    21   ar
    23    18    22    1
    24    19    21   ar
    25    21    23    1
    26    22    24    1
    27    23    26   ar
    28    23    25   ar
    29    24    27    1
    30    25    29   ar
    31    25    28    1
    32    26    30   ar
    33    27    31    1
    34    28    34    2
    35    28    33    2
    36    28    32    1
    37    29    35   ar
    38    30    35   ar
    39    32    36    1
    40    36    37   ar
    41    36    38   ar
    42    37    39   ar
    43    37    40    1
    44    38    41   ar
    45    39    41   ar
    46    39    42    1
    47     4    43    1
    48     4    44    1
    49     5    45    1
    50     5    46    1
    51     9    47    1
    52     9    48    1
    53    10    49    1
    54    10    50    1
    55    11    51    1
    56    11    52    1
    57    12    53    1
    58    12    54    1
    59    14    55    1
    60    14    56    1
    61    15    57    1
    62    16    58    1
    63    17    59    1
    64    17    60    1
    65    19    61    1
    66    20    62    1
    67    20    63    1
    68    20    64    1
    69    22    65    1
    70    22    66    1
    71    26    67    1
    72    27    68    1
    73    27    69    1
    74    29    70    1
    75    30    71    1
    76    31    72    1
    77    31    73    1
    78    31    74    1
    79    32    75    1
    80    35    76    1
    81    40    77    1
    82    40    78    1
    83    40    79    1
    84    42    80    1
    85    42    81    1
    86    42    82    1
@<TRIPOS>MOLECULE
02228316B
 82 86 0 0 0
SMALL
GASTEIGER

@<TRIPOS>ATOM
      1 C          -5.9373   -0.1238    3.6167 C.3     1  LIG1        0.2491
      2 C          -6.4395   -0.2954    2.1986 C.2     1  LIG1        0.3556
      3 N          -6.6552    1.0846    4.1017 N.2     1  LIG1       -0.0687
      4 C          -6.2497   -1.3217    4.5232 C.3     1  LIG1        0.0059
      5 C          -4.4322    0.1042    3.6741 C.3     1  LIG1        0.0059
      6 N          -7.2002    0.8061    1.9381 N.am    1  LIG1       -0.1529
      7 O          -6.2045   -1.2303    1.4493 O.2     1  LIG1       -0.2422
      8 C          -7.3049    1.5300    3.0703 C.cat   1  LIG1        0.2916
      9 C          -4.8864   -1.8373    4.9765 C.3     1  LIG1       -0.0481
     10 C          -3.9961   -0.6066    4.9468 C.3     1  LIG1       -0.0481
     11 C          -7.8747    0.9956    0.6713 C.3     1  LIG1        0.1137
     12 C          -8.1499    2.7832    3.1146 C.3     1  LIG1        0.0509
     13 C          -7.1483    1.8701   -0.3266 C.ar    1  LIG1       -0.0073
     14 C          -8.2611    3.4387    4.4929 C.3     1  LIG1       -0.0424
     15 C          -7.8864    2.4699   -1.3488 C.ar    1  LIG1       -0.0491
     16 C          -5.7656    1.9927   -0.3898 C.ar    1  LIG1       -0.0544
     17 C          -6.9903    4.1799    4.9150 C.3     1  LIG1       -0.0554
     18 C          -7.2833    3.2165   -2.3967 C.ar    1  LIG1       -0.0138
     19 C          -5.1565    2.7485   -1.4081 C.ar    1  LIG1       -0.0533
     20 C          -7.1688    4.8508    6.2692 C.3     1  LIG1       -0.0653
     21 C          -5.8788    3.4511   -2.3915 C.ar    1  LIG1       -0.0106
     22 C          -8.2340    3.5969   -3.5215 C.3     1  LIG1        0.0732
     23 C          -5.1571    4.3467   -3.3640 C.ar    1  LIG1        0.0091
     24 O          -8.1536    2.7670   -4.6899 O.3     1  LIG1       -0.3754
     25 C          -4.2285    5.3777   -3.0334 C.ar    1  LIG1        0.1162
     26 C          -5.4141    4.1941   -4.7439 C.ar    1  LIG1       -0.0521
     27 C          -8.1459    1.3520   -4.5066 C.3     1  LIG1        0.0453
     28 S          -3.6529    5.6457   -1.3581 S.O2    1  LIG1        0.0741
     29 C          -3.7145    6.2431   -4.0261 C.ar    1  LIG1       -0.0345
     30 C          -4.9246    5.0698   -5.7202 C.ar    1  LIG1       -0.0611
     31 C          -9.5265    0.7909   -4.2280 C.3     1  LIG1       -0.0416
     32 N          -2.7067    7.0698   -1.4147 N.pl3   1  LIG1       -0.1965
     33 O          -4.7948    6.0313   -0.5646 O.2     1  LIG1       -0.1499
     34 O          -2.7899    4.5495   -0.9812 O.2     1  LIG1       -0.1499
     35 C          -4.0881    6.1079   -5.3576 C.ar    1  LIG1       -0.0599
     36 C          -1.3546    6.9239   -1.0894 C.ar    1  LIG1        0.1837
     37 C          -0.7430    7.2949    0.1355 C.ar    1  LIG1        0.0342
     38 N          -0.4665    6.4257   -1.9534 N.ar    1  LIG1       -0.0614
     39 C           0.5668    6.8916   -0.0225 C.ar    1  LIG1        0.1390
     40 C          -1.3546    7.8933    1.3426 C.3     1  LIG1       -0.0330
     41 O           0.7373    6.3895   -1.2730 O.2     1  LIG1       -0.3578
     42 C           1.7540    6.8706    0.8547 C.3     1  LIG1       -0.0034
     43 H          -6.8133   -2.1145    4.0202 H       1  LIG1        0.0316
     44 H          -6.8323   -1.0134    5.4004 H       1  LIG1        0.0316
     45 H          -4.1554    1.1638    3.6938 H       1  LIG1        0.0316
     46 H          -3.9319   -0.3521    2.8108 H       1  LIG1        0.0316
     47 H          -4.5158   -2.5868    4.2669 H       1  LIG1        0.0267
     48 H          -4.9269   -2.2984    5.9674 H       1  LIG1        0.0267
     49 H          -4.1915    0.0264    5.8205 H       1  LIG1        0.0267
     50 H          -2.9327   -0.8604    4.9361 H       1  LIG1        0.0267
     51 H          -8.8618    1.4272    0.8741 H       1  LIG1        0.0783
     52 H          -8.0365    0.0163    0.2037 H       1  LIG1        0.0783
     53 H          -9.1614    2.5071    2.7941 H       1  LIG1        0.0387
     54 H          -7.7602    3.4964    2.3797 H       1  LIG1        0.0387
     55 H          -8.5232    2.6874    5.2481 H       1  LIG1        0.0271
     56 H          -9.0901    4.1570    4.4639 H       1  LIG1        0.0271
     57 H          -8.9654    2.3110   -1.3703 H       1  LIG1        0.0625
     58 H          -5.1219    1.4924    0.3294 H       1  LIG1        0.0622
     59 H          -6.7365    4.9400    4.1675 H       1  LIG1        0.0263
     60 H          -6.1415    3.4913    4.9748 H       1  LIG1        0.0263
     61 H          -4.0701    2.7402   -1.4287 H       1  LIG1        0.0624
     62 H          -7.9668    5.5994    6.2337 H       1  LIG1        0.0230
     63 H          -6.2441    5.3541    6.5682 H       1  LIG1        0.0230
     64 H          -7.4206    4.1167    7.0416 H       1  LIG1        0.0230
     65 H          -8.0511    4.6317   -3.8297 H       1  LIG1        0.0610
     66 H          -9.2755    3.5837   -3.1772 H       1  LIG1        0.0610
     67 H          -6.0193    3.3670   -5.1001 H       1  LIG1        0.0624
     68 H          -7.4262    1.0417   -3.7430 H       1  LIG1        0.0557
     69 H          -7.7846    0.9200   -5.4464 H       1  LIG1        0.0557
     70 H          -3.0108    7.0360   -3.7848 H       1  LIG1        0.0637
     71 H          -5.2039    4.9267   -6.7613 H       1  LIG1        0.0618
     72 H          -9.9566    1.2064   -3.3142 H       1  LIG1        0.0252
     73 H          -9.4813   -0.2984   -4.1265 H       1  LIG1        0.0252
     74 H         -10.2100    1.0343   -5.0480 H       1  LIG1        0.0252
     75 H          -3.2094    7.7503   -0.8481 H       1  LIG1        0.1753
     76 H          -3.7035    6.7927   -6.1099 H       1  LIG1        0.0618
     77 H          -2.3841    8.2134    1.1621 H       1  LIG1        0.0280
     78 H          -0.7853    8.7724    1.6640 H       1  LIG1        0.0280
     79 H          -1.3642    7.1696    2.1640 H       1  LIG1        0.0280
     80 H           1.5350    7.3167    1.8299 H       1  LIG1        0.0309
     81 H           2.5807    7.4276    0.4045 H       1  LIG1        0.0309
     82 H           2.0837    5.8404    1.0247 H       1  LIG1        0.0309
@<TRIPOS>BOND
     1     1     5    1
     2     1     4    1
     3     1     2    1
     4     1     3    1
     5     2     6   am
     6     2     7    2
     7     3     8    2
     8     4     9    1
     9     5    10    1
    10     6     8    1
    11     6    11    1
    12     8    12    1
    13     9    10    1
    14    11    13    1
    15    12    14    1
    16    13    15   ar
    17    13    16   ar
    18    14    17    1
    19    15    18   ar
    20    16    19   ar
    21    17    20    1
    22    18    21   ar
    23    18    22    1
    24    19    21   ar
    25    21    23    1
    26    22    24    1
    27    23    26   ar
    28    23    25   ar
    29    24    27    1
    30    25    29   ar
    31    25    28    1
    32    26    30   ar
    33    27    31    1
    34    28    34    2
    35    28    33    2
    36    28    32    1
    37    29    35   ar
    38    30    35   ar
    39    32    36    1
    40    36    37   ar
    41    36    38   ar
    42    37    39   ar
    43    37    40    1
    44    38    41   ar
    45    39    41   ar
    46    39    42    1
    47     4    43    1
    48     4    44    1
    49     5    45    1
    50     5    46    1
    51     9    47    1
    52     9    48    1
    53    10    49    1
    54    10    50    1
    55    11    51    1
    56    11    52    1
    57    12    53    1
    58    12    54    1
    59    14    55    1
    60    14    56    1
    61    15    57    1
    62    16    58    1
    63    17    59    1
    64    17    60    1
    65    19    61    1
    66    20    62    1
    67    20    63    1
    68    20    64    1
    69    22    65    1
    70    22    66    1
    71    26    67    1
    72    27    68    1
    73    27    69    1
    74    29    70    1
    75    30    71    1
    76    31    72    1
    77    31    73    1
    78    31    74    1
    79    32    75    1
    80    35    76    1
    81    40    77    1
    82    40    78    1
    83    40    79    1
    84    42    80    1
    85    42    81    1
    86    42    82    1
@<TRIPOS>MOLECULE
02228316B
 82 86 0 0 0
SMALL
GASTEIGER

@<TRIPOS>ATOM
      1 C         -11.2021    1.6114    2.0142 C.3     1  LIG1        0.2491
      2 C          -9.7429    1.9362    1.7656 C.2     1  LIG1        0.3556
      3 N         -11.3265    0.1975    1.5771 N.2     1  LIG1       -0.0687
      4 C         -11.6288    1.7544    3.4777 C.3     1  LIG1        0.0059
      5 C         -12.1460    2.4883    1.1882 C.3     1  LIG1        0.0059
      6 N          -9.2551    0.8896    1.0320 N.am    1  LIG1       -0.1529
      7 O          -9.1337    2.9111    2.1776 O.2     1  LIG1       -0.2422
      8 C         -10.1804   -0.0907    1.0421 C.cat   1  LIG1        0.2916
      9 C         -12.7540    2.7863    3.4703 C.3     1  LIG1       -0.0481
     10 C         -13.3638    2.6635    2.0841 C.3     1  LIG1       -0.0481
     11 C          -7.8551    0.7900    0.6609 C.3     1  LIG1        0.1137
     12 C          -9.8734   -1.4521    0.4585 C.3     1  LIG1        0.0509
     13 C          -7.4104    1.8648   -0.3005 C.ar    1  LIG1       -0.0073
     14 C         -10.9611   -2.5075    0.6600 C.3     1  LIG1       -0.0424
     15 C          -7.8246    1.8751   -1.6357 C.ar    1  LIG1       -0.0491
     16 C          -6.5704    2.8842    0.1300 C.ar    1  LIG1       -0.0544
     17 C         -12.1653   -2.3189   -0.2648 C.3     1  LIG1       -0.0554
     18 C          -7.3600    2.8494   -2.5571 C.ar    1  LIG1       -0.0138
     19 C          -6.1199    3.8521   -0.7678 C.ar    1  LIG1       -0.0533
     20 C         -13.1844   -3.4322   -0.0713 C.3     1  LIG1       -0.0653
     21 C          -6.4319    3.8390   -2.1358 C.ar    1  LIG1       -0.0106
     22 C          -7.9321    2.7715   -3.9617 C.3     1  LIG1        0.0732
     23 C          -5.8359    4.8719   -3.0351 C.ar    1  LIG1        0.0091
     24 O          -6.9799    2.4581   -4.9672 O.3     1  LIG1       -0.3754
     25 C          -4.4542    5.1052   -3.2618 C.ar    1  LIG1        0.1162
     26 C          -6.7226    5.7314   -3.7228 C.ar    1  LIG1       -0.0521
     27 C          -6.4743    1.1263   -4.9364 C.3     1  LIG1        0.0453
     28 S          -3.1219    4.3429   -2.3259 S.O2    1  LIG1        0.0741
     29 C          -4.0274    6.0377   -4.2319 C.ar    1  LIG1       -0.0345
     30 C          -6.2903    6.6718   -4.6641 C.ar    1  LIG1       -0.0611
     31 C          -7.5465    0.0755   -5.1783 C.3     1  LIG1       -0.0416
     32 N          -3.0651    5.2558   -0.9009 N.pl3   1  LIG1       -0.1965
     33 O          -3.5202    3.0053   -1.9406 O.2     1  LIG1       -0.1499
     34 O          -1.8732    4.5350   -3.0456 O.2     1  LIG1       -0.1499
     35 C          -4.9407    6.8102   -4.9378 C.ar    1  LIG1       -0.0599
     36 C          -3.2324    6.6385   -0.9185 C.ar    1  LIG1        0.1837
     37 C          -4.1348    7.3854   -0.1046 C.ar    1  LIG1        0.0342
     38 N          -2.5428    7.4410   -1.7312 N.ar    1  LIG1       -0.0614
     39 C          -3.9569    8.6855   -0.5330 C.ar    1  LIG1        0.1390
     40 C          -5.1152    6.9265    0.9036 C.3     1  LIG1       -0.0330
     41 O          -2.9943    8.7203   -1.4883 O.2     1  LIG1       -0.3578
     42 C          -4.5863    9.9727   -0.1831 C.3     1  LIG1       -0.0034
     43 H         -10.8170    2.0782    4.1371 H       1  LIG1        0.0316
     44 H         -12.0089    0.8039    3.8725 H       1  LIG1        0.0316
     45 H         -12.4212    2.0441    0.2255 H       1  LIG1        0.0316
     46 H         -11.6951    3.4677    0.9854 H       1  LIG1        0.0316
     47 H         -12.3394    3.7918    3.6100 H       1  LIG1        0.0267
     48 H         -13.4847    2.6076    4.2644 H       1  LIG1        0.0267
     49 H         -14.0076    1.7777    2.0287 H       1  LIG1        0.0267
     50 H         -13.9589    3.5390    1.8106 H       1  LIG1        0.0267
     51 H          -7.6376   -0.1844    0.2126 H       1  LIG1        0.0783
     52 H          -7.2681    0.8445    1.5861 H       1  LIG1        0.0783
     53 H          -8.9627   -1.8166    0.9493 H       1  LIG1        0.0387
     54 H          -9.6447   -1.3326   -0.6067 H       1  LIG1        0.0387
     55 H         -11.2908   -2.5166    1.7061 H       1  LIG1        0.0271
     56 H         -10.5202   -3.4926    0.4608 H       1  LIG1        0.0271
     57 H          -8.5196    1.1085   -1.9739 H       1  LIG1        0.0625
     58 H          -6.2605    2.9413    1.1728 H       1  LIG1        0.0622
     59 H         -11.8357   -2.3111   -1.3100 H       1  LIG1        0.0263
     60 H         -12.6533   -1.3578   -0.0736 H       1  LIG1        0.0263
     61 H          -5.4992    4.6381   -0.3712 H       1  LIG1        0.0624
     62 H         -12.7508   -4.4068   -0.3174 H       1  LIG1        0.0230
     63 H         -14.0500   -3.2719   -0.7214 H       1  LIG1        0.0230
     64 H         -13.5382   -3.4654    0.9642 H       1  LIG1        0.0230
     65 H          -8.3918    3.7280   -4.2220 H       1  LIG1        0.0610
     66 H          -8.7739    2.0713   -4.0077 H       1  LIG1        0.0610
     67 H          -7.7930    5.6757   -3.5296 H       1  LIG1        0.0624
     68 H          -5.9425    0.9413   -3.9972 H       1  LIG1        0.0557
     69 H          -5.7354    1.0610   -5.7409 H       1  LIG1        0.0557
     70 H          -2.9625    6.2016   -4.4173 H       1  LIG1        0.0637
     71 H          -7.0158    7.2904   -5.1887 H       1  LIG1        0.0618
     72 H          -8.1972   -0.0358   -4.3052 H       1  LIG1        0.0252
     73 H          -7.0926   -0.8999   -5.3746 H       1  LIG1        0.0252
     74 H          -8.1838    0.3517   -6.0248 H       1  LIG1        0.0252
     75 H          -3.4301    4.7260   -0.1157 H       1  LIG1        0.1753
     76 H          -4.5928    7.5326   -5.6703 H       1  LIG1        0.0618
     77 H          -4.7655    6.0283    1.4242 H       1  LIG1        0.0280
     78 H          -6.0718    6.7023    0.4204 H       1  LIG1        0.0280
     79 H          -5.3011    7.6951    1.6583 H       1  LIG1        0.0280
     80 H          -5.6573    9.8417    0.0031 H       1  LIG1        0.0309
     81 H          -4.4766   10.7025   -0.9923 H       1  LIG1        0.0309
     82 H          -4.1302   10.3881    0.7205 H       1  LIG1        0.0309
@<TRIPOS>BOND
     1     1     5    1
     2     1     4    1
     3     1     2    1
     4     1     3    1
     5     2     6   am
     6     2     7    2
     7     3     8    2
     8     4     9    1
     9     5    10    1
    10     6     8    1
    11     6    11    1
    12     8    12    1
    13     9    10    1
    14    11    13    1
    15    12    14    1
    16    13    15   ar
    17    13    16   ar
    18    14    17    1
    19    15    18   ar
    20    16    19   ar
    21    17    20    1
    22    18    21   ar
    23    18    22    1
    24    19    21   ar
    25    21    23    1
    26    22    24    1
    27    23    26   ar
    28    23    25   ar
    29    24    27    1
    30    25    29   ar
    31    25    28    1
    32    26    30   ar
    33    27    31    1
    34    28    34    2
    35    28    33    2
    36    28    32    1
    37    29    35   ar
    38    30    35   ar
    39    32    36    1
    40    36    37   ar
    41    36    38   ar
    42    37    39   ar
    43    37    40    1
    44    38    41   ar
    45    39    41   ar
    46    39    42    1
    47     4    43    1
    48     4    44    1
    49     5    45    1
    50     5    46    1
    51     9    47    1
    52     9    48    1
    53    10    49    1
    54    10    50    1
    55    11    51    1
    56    11    52    1
    57    12    53    1
    58    12    54    1
    59    14    55    1
    60    14    56    1
    61    15    57    1
    62    16    58    1
    63    17    59    1
    64    17    60    1
    65    19    61    1
    66    20    62    1
    67    20    63    1
    68    20    64    1
    69    22    65    1
    70    22    66    1
    71    26    67    1
    72    27    68    1
    73    27    69    1
    74    29    70    1
    75    30    71    1
    76    31    72    1
    77    31    73    1
    78    31    74    1
    79    32    75    1
    80    35    76    1
    81    40    77    1
    82    40    78    1
    83    40    79    1
    84    42    80    1
    85    42    81    1
    86    42    82    1
@<TRIPOS>MOLECULE
02228316B
 82 86 0 0 0
SMALL
GASTEIGER

@<TRIPOS>ATOM
      1 C          -5.6444    0.3011    3.4961 C.3     1  LIG1        0.2491
      2 C          -5.9236    0.4088    2.0088 C.2     1  LIG1        0.3556
      3 N          -7.0032    0.2958    4.0990 N.2     1  LIG1       -0.0687
      4 C          -4.8726   -0.9536    3.9128 C.3     1  LIG1        0.0059
      5 C          -4.8579    1.5025    4.0278 C.3     1  LIG1        0.0059
      6 N          -7.2277    0.8157    1.9169 N.am    1  LIG1       -0.1529
      7 O          -5.1659    0.1208    1.0972 O.2     1  LIG1       -0.2422
      8 C          -7.7993    0.6008    3.1204 C.cat   1  LIG1        0.2916
      9 C          -3.6058   -0.4406    4.5939 C.3     1  LIG1       -0.0481
     10 C          -4.0023    0.9193    5.1429 C.3     1  LIG1       -0.0481
     11 C          -7.9016    0.9622    0.6384 C.3     1  LIG1        0.1137
     12 C          -9.2993    0.6967    3.2930 C.3     1  LIG1        0.0509
     13 C          -7.4266    2.0935   -0.2459 C.ar    1  LIG1       -0.0073
     14 C          -9.8259    0.2832    4.6670 C.3     1  LIG1       -0.0424
     15 C          -7.6794    2.0077   -1.6181 C.ar    1  LIG1       -0.0491
     16 C          -6.8240    3.2570    0.2190 C.ar    1  LIG1       -0.0544
     17 C          -9.5936    1.3434    5.7445 C.3     1  LIG1       -0.0554
     18 C          -7.2551    2.9980   -2.5378 C.ar    1  LIG1       -0.0138
     19 C          -6.3870    4.2470   -0.6812 C.ar    1  LIG1       -0.0533
     20 C         -10.1880    0.9100    7.0763 C.3     1  LIG1       -0.0653
     21 C          -6.4959    4.1148   -2.0801 C.ar    1  LIG1       -0.0106
     22 C          -7.7303    2.7828   -3.9651 C.3     1  LIG1        0.0732
     23 C          -5.8343    5.0900   -3.0117 C.ar    1  LIG1        0.0091
     24 O          -6.6989    2.5663   -4.9145 O.3     1  LIG1       -0.3754
     25 C          -4.4549    5.4269   -3.0500 C.ar    1  LIG1        0.1162
     26 C          -6.6220    5.6934   -4.0184 C.ar    1  LIG1       -0.0521
     27 C          -6.2441    1.2160   -4.9295 C.3     1  LIG1        0.0453
     28 S          -3.3371    5.2796   -1.6440 S.O2    1  LIG1        0.0741
     29 C          -3.9036    6.1491   -4.1373 C.ar    1  LIG1       -0.0345
     30 C          -6.0770    6.4246   -5.0813 C.ar    1  LIG1       -0.0611
     31 C          -5.5082    0.9863   -6.2338 C.3     1  LIG1       -0.0416
     32 N          -3.9364    6.6053   -0.7614 N.pl3   1  LIG1       -0.1965
     33 O          -3.5618    4.0364   -0.9533 O.2     1  LIG1       -0.1499
     34 O          -2.0111    5.6534   -2.1040 O.2     1  LIG1       -0.1499
     35 C          -4.7087    6.6205   -5.1634 C.ar    1  LIG1       -0.0599
     36 C          -3.1581    7.1839    0.2326 C.ar    1  LIG1        0.1837
     37 C          -2.7689    8.5518    0.2660 C.ar    1  LIG1        0.0342
     38 N          -2.7872    6.5388    1.3389 N.ar    1  LIG1       -0.0614
     39 C          -2.1531    8.6809    1.4905 C.ar    1  LIG1        0.1390
     40 C          -2.9476    9.6026   -0.7629 C.3     1  LIG1       -0.0330
     41 O          -2.1568    7.4804    2.1317 O.2     1  LIG1       -0.3578
     42 C          -1.5260    9.8044    2.2131 C.3     1  LIG1       -0.0034
     43 H          -4.6182   -1.6084    3.0730 H       1  LIG1        0.0316
     44 H          -5.4511   -1.5520    4.6276 H       1  LIG1        0.0316
     45 H          -5.4971    2.3108    4.3993 H       1  LIG1        0.0316
     46 H          -4.2103    1.9227    3.2481 H       1  LIG1        0.0316
     47 H          -2.8037   -0.3273    3.8547 H       1  LIG1        0.0267
     48 H          -3.2523   -1.1183    5.3763 H       1  LIG1        0.0267
     49 H          -4.5963    0.8024    6.0571 H       1  LIG1        0.0267
     50 H          -3.1361    1.5458    5.3736 H       1  LIG1        0.0267
     51 H          -8.9759    1.0975    0.7908 H       1  LIG1        0.0783
     52 H          -7.7598    0.0123    0.1066 H       1  LIG1        0.0783
     53 H          -9.7526    0.0251    2.5531 H       1  LIG1        0.0387
     54 H          -9.6164    1.7163    3.0473 H       1  LIG1        0.0387
     55 H          -9.3777   -0.6692    4.9749 H       1  LIG1        0.0271
     56 H         -10.9061    0.1076    4.5786 H       1  LIG1        0.0271
     57 H          -8.2186    1.1364   -1.9912 H       1  LIG1        0.0625
     58 H          -6.6373    3.4054    1.2805 H       1  LIG1        0.0622
     59 H         -10.0505    2.2915    5.4388 H       1  LIG1        0.0263
     60 H          -8.5232    1.5296    5.8790 H       1  LIG1        0.0263
     61 H          -5.9057    5.1156   -0.2405 H       1  LIG1        0.0624
     62 H         -11.2707    0.7699    6.9948 H       1  LIG1        0.0230
     63 H         -10.0005    1.6699    7.8410 H       1  LIG1        0.0230
     64 H          -9.7448   -0.0316    7.4164 H       1  LIG1        0.0230
     65 H          -8.3186    3.6467   -4.2844 H       1  LIG1        0.0610
     66 H          -8.4594    1.9626   -4.0199 H       1  LIG1        0.0610
     67 H          -7.7039    5.5816   -4.0025 H       1  LIG1        0.0624
     68 H          -7.0884    0.5189   -4.8724 H       1  LIG1        0.0557
     69 H          -5.5806    1.0461   -4.0763 H       1  LIG1        0.0557
     70 H          -2.8393    6.3768   -4.1781 H       1  LIG1        0.0637
     71 H          -6.7293    6.8153   -5.8610 H       1  LIG1        0.0618
     72 H          -6.1764    1.1653   -7.0838 H       1  LIG1        0.0252
     73 H          -5.1327   -0.0386   -6.2943 H       1  LIG1        0.0252
     74 H          -4.6708    1.6832   -6.3353 H       1  LIG1        0.0252
     75 H          -4.3966    7.2656   -1.3826 H       1  LIG1        0.1753
     76 H          -4.2757    7.1657   -5.9973 H       1  LIG1        0.0618
     77 H          -3.4338    9.2191   -1.6633 H       1  LIG1        0.0280
     78 H          -1.9747   10.0062   -1.0613 H       1  LIG1        0.0280
     79 H          -3.5556   10.4246   -0.3731 H       1  LIG1        0.0280
     80 H          -1.4240   10.6829    1.5676 H       1  LIG1        0.0309
     81 H          -0.5292    9.5301    2.5698 H       1  LIG1        0.0309
     82 H          -2.1364   10.0908    3.0759 H       1  LIG1        0.0309
@<TRIPOS>BOND
     1     1     5    1
     2     1     4    1
     3     1     2    1
     4     1     3    1
     5     2     6   am
     6     2     7    2
     7     3     8    2
     8     4     9    1
     9     5    10    1
    10     6     8    1
    11     6    11    1
    12     8    12    1
    13     9    10    1
    14    11    13    1
    15    12    14    1
    16    13    15   ar
    17    13    16   ar
    18    14    17    1
    19    15    18   ar
    20    16    19   ar
    21    17    20    1
    22    18    21   ar
    23    18    22    1
    24    19    21   ar
    25    21    23    1
    26    22    24    1
    27    23    26   ar
    28    23    25   ar
    29    24    27    1
    30    25    29   ar
    31    25    28    1
    32    26    30   ar
    33    27    31    1
    34    28    34    2
    35    28    33    2
    36    28    32    1
    37    29    35   ar
    38    30    35   ar
    39    32    36    1
    40    36    37   ar
    41    36    38   ar
    42    37    39   ar
    43    37    40    1
    44    38    41   ar
    45    39    41   ar
    46    39    42    1
    47     4    43    1
    48     4    44    1
    49     5    45    1
    50     5    46    1
    51     9    47    1
    52     9    48    1
    53    10    49    1
    54    10    50    1
    55    11    51    1
    56    11    52    1
    57    12    53    1
    58    12    54    1
    59    14    55    1
    60    14    56    1
    61    15    57    1
    62    16    58    1
    63    17    59    1
    64    17    60    1
    65    19    61    1
    66    20    62    1
    67    20    63    1
    68    20    64    1
    69    22    65    1
    70    22    66    1
    71    26    67    1
    72    27    68    1
    73    27    69    1
    74    29    70    1
    75    30    71    1
    76    31    72    1
    77    31    73    1
    78    31    74    1
    79    32    75    1
    80    35    76    1
    81    40    77    1
    82    40    78    1
    83    40    79    1
    84    42    80    1
    85    42    81    1
    86    42    82    1
@<TRIPOS>MOLECULE
02228316B
 82 86 0 0 0
SMALL
GASTEIGER

@<TRIPOS>ATOM
      1 C          -5.2094   -1.4575    1.5681 C.3     1  LIG1        0.2491
      2 C          -5.6536   -0.0152    1.4353 C.2     1  LIG1        0.3556
      3 N          -6.4102   -2.2315    1.1721 N.2     1  LIG1       -0.0687
      4 C          -4.0242   -1.8169    0.6694 C.3     1  LIG1        0.0059
      5 C          -4.8041   -1.8027    3.0055 C.3     1  LIG1        0.0059
      6 N          -6.9263   -0.0527    0.9295 N.am    1  LIG1       -0.1529
      7 O          -5.0166    0.9671    1.7819 O.2     1  LIG1       -0.2422
      8 C          -7.3007   -1.3419    0.8542 C.cat   1  LIG1        0.2916
      9 C          -2.8668   -2.0614    1.6320 C.3     1  LIG1       -0.0481
     10 C          -3.5405   -2.6406    2.8641 C.3     1  LIG1       -0.0481
     11 C          -7.7375    1.1526    0.8482 C.3     1  LIG1        0.1137
     12 C          -8.6934   -1.7858    0.4702 C.3     1  LIG1        0.0509
     13 C          -7.2594    2.1467   -0.1857 C.ar    1  LIG1       -0.0073
     14 C          -8.6733   -2.7204   -0.7399 C.3     1  LIG1       -0.0424
     15 C          -7.5920    2.0191   -1.5384 C.ar    1  LIG1       -0.0491
     16 C          -6.4875    3.2414    0.2035 C.ar    1  LIG1       -0.0544
     17 C         -10.0635   -3.2993   -1.0062 C.3     1  LIG1       -0.0554
     18 C          -7.1544    2.9598   -2.5047 C.ar    1  LIG1       -0.0138
     19 C          -6.0417    4.1708   -0.7369 C.ar    1  LIG1       -0.0533
     20 C         -10.0659   -4.2250   -2.2115 C.3     1  LIG1       -0.0653
     21 C          -6.3164    4.0339   -2.1080 C.ar    1  LIG1       -0.0106
     22 C          -7.6552    2.7747   -3.9247 C.3     1  LIG1        0.0732
     23 C          -5.7723    5.0466   -3.0404 C.ar    1  LIG1        0.0091
     24 O          -6.6882    2.2316   -4.8135 O.3     1  LIG1       -0.3754
     25 C          -4.4021    5.2420   -3.3242 C.ar    1  LIG1        0.1162
     26 C          -6.6784    5.9273   -3.6738 C.ar    1  LIG1       -0.0521
     27 C          -6.4488    0.8330   -4.6818 C.3     1  LIG1        0.0453
     28 S          -3.0843    4.2925   -2.5735 S.O2    1  LIG1        0.0741
     29 C          -3.9877    6.2324   -4.2394 C.ar    1  LIG1       -0.0345
     30 C          -6.2627    6.8980   -4.5904 C.ar    1  LIG1       -0.0611
     31 C          -7.6608   -0.0155   -5.0345 C.3     1  LIG1       -0.0416
     32 N          -3.4916    2.6810   -2.8939 N.pl3   1  LIG1       -0.1965
     33 O          -1.8622    4.6191   -3.2808 O.2     1  LIG1       -0.1499
     34 O          -3.1518    4.4914   -1.1404 O.2     1  LIG1       -0.1499
     35 C          -4.9155    7.0460   -4.8804 C.ar    1  LIG1       -0.0599
     36 C          -2.6927    2.0085   -3.8134 C.ar    1  LIG1        0.1837
     37 C          -2.6526    2.2051   -5.2161 C.ar    1  LIG1        0.0342
     38 N          -1.8603    1.0428   -3.4212 N.ar    1  LIG1       -0.0614
     39 C          -1.6107    1.3974   -5.6187 C.ar    1  LIG1        0.1390
     40 C          -3.4923    3.0794   -6.0614 C.3     1  LIG1       -0.0330
     41 O          -1.1428    0.6939   -4.5534 O.2     1  LIG1       -0.3578
     42 C          -0.9293    1.1713   -6.9069 C.3     1  LIG1       -0.0034
     43 H          -3.7731   -1.0343   -0.0541 H       1  LIG1        0.0316
     44 H          -4.2238   -2.7367    0.1053 H       1  LIG1        0.0316
     45 H          -5.5793   -2.3476    3.5547 H       1  LIG1        0.0316
     46 H          -4.5721   -0.8982    3.5813 H       1  LIG1        0.0316
     47 H          -2.3754   -1.1129    1.8795 H       1  LIG1        0.0267
     48 H          -2.1148   -2.7370    1.2143 H       1  LIG1        0.0267
     49 H          -3.8020   -3.6920    2.6970 H       1  LIG1        0.0267
     50 H          -2.9051   -2.5831    3.7527 H       1  LIG1        0.0267
     51 H          -7.7211    1.6226    1.8401 H       1  LIG1        0.0783
     52 H          -8.7853    0.9169    0.6513 H       1  LIG1        0.0783
     53 H          -9.3561   -0.9459    0.2637 H       1  LIG1        0.0387
     54 H          -9.1063   -2.3159    1.3379 H       1  LIG1        0.0387
     55 H          -7.9636   -3.5410   -0.5785 H       1  LIG1        0.0271
     56 H          -8.3204   -2.1681   -1.6198 H       1  LIG1        0.0271
     57 H          -8.2167    1.1835   -1.8521 H       1  LIG1        0.0625
     58 H          -6.2057    3.3790    1.2467 H       1  LIG1        0.0622
     59 H         -10.7806   -2.4874   -1.1735 H       1  LIG1        0.0263
     60 H         -10.4065   -3.8578   -0.1270 H       1  LIG1        0.0263
     61 H          -5.4541    5.0150   -0.3759 H       1  LIG1        0.0624
     62 H          -9.7668   -3.6893   -3.1178 H       1  LIG1        0.0230
     63 H         -11.0688   -4.6331   -2.3728 H       1  LIG1        0.0230
     64 H          -9.3785   -5.0640   -2.0638 H       1  LIG1        0.0230
     65 H          -7.9680    3.7378   -4.3359 H       1  LIG1        0.0610
     66 H          -8.5777    2.1831   -3.9384 H       1  LIG1        0.0610
     67 H          -7.7423    5.8595   -3.4511 H       1  LIG1        0.0624
     68 H          -6.0772    0.5993   -3.6795 H       1  LIG1        0.0557
     69 H          -5.6447    0.5939   -5.3856 H       1  LIG1        0.0557
     70 H          -2.9314    6.3836   -4.4626 H       1  LIG1        0.0637
     71 H          -6.9953    7.5408   -5.0720 H       1  LIG1        0.0618
     72 H          -8.4184    0.0271   -4.2457 H       1  LIG1        0.0252
     73 H          -7.3740   -1.0640   -5.1558 H       1  LIG1        0.0252
     74 H          -8.1322    0.3360   -5.9580 H       1  LIG1        0.0252
     75 H          -3.5444    2.2037   -1.9929 H       1  LIG1        0.1753
     76 H          -4.5828    7.7991   -5.5898 H       1  LIG1        0.0618
     77 H          -4.3990    3.3919   -5.5394 H       1  LIG1        0.0280
     78 H          -3.8116    2.5468   -6.9636 H       1  LIG1        0.0280
     79 H          -2.9406    3.9736   -6.3646 H       1  LIG1        0.0280
     80 H          -1.5840    1.4207   -7.7475 H       1  LIG1        0.0309
     81 H          -0.6233    0.1268   -7.0138 H       1  LIG1        0.0309
     82 H          -0.0363    1.8012   -6.9758 H       1  LIG1        0.0309
@<TRIPOS>BOND
     1     1     5    1
     2     1     4    1
     3     1     2    1
     4     1     3    1
     5     2     6   am
     6     2     7    2
     7     3     8    2
     8     4     9    1
     9     5    10    1
    10     6     8    1
    11     6    11    1
    12     8    12    1
    13     9    10    1
    14    11    13    1
    15    12    14    1
    16    13    15   ar
    17    13    16   ar
    18    14    17    1
    19    15    18   ar
    20    16    19   ar
    21    17    20    1
    22    18    21   ar
    23    18    22    1
    24    19    21   ar
    25    21    23    1
    26    22    24    1
    27    23    26   ar
    28    23    25   ar
    29    24    27    1
    30    25    29   ar
    31    25    28    1
    32    26    30   ar
    33    27    31    1
    34    28    34    2
    35    28    33    2
    36    28    32    1
    37    29    35   ar
    38    30    35   ar
    39    32    36    1
    40    36    37   ar
    41    36    38   ar
    42    37    39   ar
    43    37    40    1
    44    38    41   ar
    45    39    41   ar
    46    39    42    1
    47     4    43    1
    48     4    44    1
    49     5    45    1
    50     5    46    1
    51     9    47    1
    52     9    48    1
    53    10    49    1
    54    10    50    1
    55    11    51    1
    56    11    52    1
    57    12    53    1
    58    12    54    1
    59    14    55    1
    60    14    56    1
    61    15    57    1
    62    16    58    1
    63    17    59    1
    64    17    60    1
    65    19    61    1
    66    20    62    1
    67    20    63    1
    68    20    64    1
    69    22    65    1
    70    22    66    1
    71    26    67    1
    72    27    68    1
    73    27    69    1
    74    29    70    1
    75    30    71    1
    76    31    72    1
    77    31    73    1
    78    31    74    1
    79    32    75    1
    80    35    76    1
    81    40    77    1
    82    40    78    1
    83    40    79    1
    84    42    80    1
    85    42    81    1
    86    42    82    1
@<TRIPOS>MOLECULE
02228316B
 82 86 0 0 0
SMALL
GASTEIGER

@<TRIPOS>ATOM
      1 C          -7.8295    1.7508    4.2821 C.3     1  LIG1        0.2491
      2 C          -8.2938    2.1205    2.8895 C.2     1  LIG1        0.3556
      3 N          -7.2105    0.4163    4.1048 N.2     1  LIG1       -0.0687
      4 C          -6.7969    2.7270    4.8524 C.3     1  LIG1        0.0059
      5 C          -8.9857    1.6812    5.2813 C.3     1  LIG1        0.0059
      6 N          -7.8436    1.1257    2.0649 N.am    1  LIG1       -0.1529
      7 O          -8.9574    3.0986    2.5831 O.2     1  LIG1       -0.2422
      8 C          -7.2895    0.1714    2.8317 C.cat   1  LIG1        0.2916
      9 C          -7.4967    3.3900    6.0332 C.3     1  LIG1       -0.0481
     10 C          -8.4331    2.3118    6.5520 C.3     1  LIG1       -0.0481
     11 C          -8.1885    1.1066    0.6521 C.3     1  LIG1        0.1137
     12 C          -6.7791   -1.1440    2.2898 C.3     1  LIG1        0.0509
     13 C          -7.4213    2.0565   -0.2489 C.ar    1  LIG1       -0.0073
     14 C          -7.4663   -2.3362    2.9665 C.3     1  LIG1       -0.0424
     15 C          -7.6851    2.0147   -1.6276 C.ar    1  LIG1       -0.0491
     16 C          -6.5470    3.0413    0.2097 C.ar    1  LIG1       -0.0544
     17 C          -8.9677   -2.4034    2.6756 C.3     1  LIG1       -0.0554
     18 C          -7.0942    2.9192   -2.5406 C.ar    1  LIG1       -0.0138
     19 C          -5.9708    3.9596   -0.6791 C.ar    1  LIG1       -0.0533
     20 C          -9.6120   -3.6051    3.3513 C.3     1  LIG1       -0.0653
     21 C          -6.1964    3.9064   -2.0664 C.ar    1  LIG1       -0.0106
     22 C          -7.5794    2.8572   -3.9743 C.3     1  LIG1        0.0732
     23 C          -5.6082    4.9476   -2.9406 C.ar    1  LIG1        0.0091
     24 O          -8.7961    3.6026   -4.0299 O.3     1  LIG1       -0.3754
     25 C          -4.2413    5.1323   -3.2336 C.ar    1  LIG1        0.1162
     26 C          -6.5126    5.8608   -3.5394 C.ar    1  LIG1       -0.0521
     27 C          -9.3962    3.6461   -5.3179 C.3     1  LIG1        0.0453
     28 S          -2.8877    4.1931   -2.5331 S.O2    1  LIG1        0.0741
     29 C          -3.8334    6.1772   -4.0972 C.ar    1  LIG1       -0.0345
     30 C          -6.1025    6.8683   -4.4164 C.ar    1  LIG1       -0.0611
     31 C         -10.2726    2.4293   -5.5479 C.3     1  LIG1       -0.0416
     32 N          -2.6186    2.9977   -3.7184 N.pl3   1  LIG1       -0.1965
     33 O          -1.7500    5.0886   -2.4600 O.2     1  LIG1       -0.1499
     34 O          -3.3075    3.4674   -1.3587 O.2     1  LIG1       -0.1499
     35 C          -4.7571    7.0255   -4.6993 C.ar    1  LIG1       -0.0599
     36 C          -1.4529    3.1310   -4.4677 C.ar    1  LIG1        0.1837
     37 C          -1.3546    3.6993   -5.7600 C.ar    1  LIG1        0.0342
     38 N          -0.2892    2.6333   -4.0499 N.ar    1  LIG1       -0.0614
     39 C          -0.0028    3.6450   -6.0268 C.ar    1  LIG1        0.1390
     40 C          -2.4300    4.2174   -6.6316 C.3     1  LIG1       -0.0330
     41 O           0.6355    3.0064   -5.0097 O.2     1  LIG1       -0.3578
     42 C           0.8486    4.1050   -7.1395 C.3     1  LIG1       -0.0034
     43 H          -6.4589    3.4746    4.1273 H       1  LIG1        0.0316
     44 H          -5.9082    2.1935    5.2126 H       1  LIG1        0.0316
     45 H          -9.3388    0.6609    5.4650 H       1  LIG1        0.0316
     46 H          -9.8457    2.2671    4.9337 H       1  LIG1        0.0316
     47 H          -8.0715    4.2581    5.6896 H       1  LIG1        0.0267
     48 H          -6.7896    3.7284    6.7960 H       1  LIG1        0.0267
     49 H          -7.8739    1.5672    7.1303 H       1  LIG1        0.0267
     50 H          -9.2234    2.7186    7.1893 H       1  LIG1        0.0267
     51 H          -9.2510    1.3722    0.5794 H       1  LIG1        0.0783
     52 H          -8.0835    0.0924    0.2589 H       1  LIG1        0.0783
     53 H          -5.7058   -1.1880    2.5123 H       1  LIG1        0.0387
     54 H          -6.8769   -1.2193    1.2066 H       1  LIG1        0.0387
     55 H          -7.3085   -2.2933    4.0516 H       1  LIG1        0.0271
     56 H          -6.9882   -3.2597    2.6171 H       1  LIG1        0.0271
     57 H          -8.4131    1.2960   -2.0049 H       1  LIG1        0.0625
     58 H          -6.3153    3.1492    1.2656 H       1  LIG1        0.0622
     59 H          -9.1350   -2.4635    1.5943 H       1  LIG1        0.0263
     60 H          -9.4657   -1.4946    3.0319 H       1  LIG1        0.0263
     61 H          -5.3301    4.7370   -0.2627 H       1  LIG1        0.0624
     62 H          -9.1727   -4.5410    2.9922 H       1  LIG1        0.0230
     63 H         -10.6854   -3.6297    3.1383 H       1  LIG1        0.0230
     64 H          -9.4840   -3.5599    4.4378 H       1  LIG1        0.0230
     65 H          -7.7603    1.8150   -4.2616 H       1  LIG1        0.0610
     66 H          -6.8414    3.2651   -4.6727 H       1  LIG1        0.0610
     67 H          -7.5785    5.7836   -3.3172 H       1  LIG1        0.0624
     68 H          -8.6404    3.7555   -6.1030 H       1  LIG1        0.0557
     69 H         -10.0268    4.5416   -5.3431 H       1  LIG1        0.0557
     70 H          -2.7757    6.3416   -4.3037 H       1  LIG1        0.0637
     71 H          -6.8385    7.5327   -4.8621 H       1  LIG1        0.0618
     72 H          -9.6748    1.5144   -5.5910 H       1  LIG1        0.0252
     73 H         -10.8278    2.5253   -6.4855 H       1  LIG1        0.0252
     74 H         -10.9869    2.3079   -4.7265 H       1  LIG1        0.0252
     75 H          -2.6097    2.1321   -3.1740 H       1  LIG1        0.1753
     76 H          -4.4225    7.8157   -5.3666 H       1  LIG1        0.0618
     77 H          -3.4217    3.9884   -6.2295 H       1  LIG1        0.0280
     78 H          -2.3683    3.7569   -7.6234 H       1  LIG1        0.0280
     79 H          -2.3455    5.3013   -6.7506 H       1  LIG1        0.0280
     80 H           0.2447    4.4830   -7.9700 H       1  LIG1        0.0309
     81 H           1.4698    3.2869   -7.5156 H       1  LIG1        0.0309
     82 H           1.5062    4.9136   -6.8049 H       1  LIG1        0.0309
@<TRIPOS>BOND
     1     1     5    1
     2     1     4    1
     3     1     2    1
     4     1     3    1
     5     2     6   am
     6     2     7    2
     7     3     8    2
     8     4     9    1
     9     5    10    1
    10     6     8    1
    11     6    11    1
    12     8    12    1
    13     9    10    1
    14    11    13    1
    15    12    14    1
    16    13    15   ar
    17    13    16   ar
    18    14    17    1
    19    15    18   ar
    20    16    19   ar
    21    17    20    1
    22    18    21   ar
    23    18    22    1
    24    19    21   ar
    25    21    23    1
    26    22    24    1
    27    23    26   ar
    28    23    25   ar
    29    24    27    1
    30    25    29   ar
    31    25    28    1
    32    26    30   ar
    33    27    31    1
    34    28    34    2
    35    28    33    2
    36    28    32    1
    37    29    35   ar
    38    30    35   ar
    39    32    36    1
    40    36    37   ar
    41    36    38   ar
    42    37    39   ar
    43    37    40    1
    44    38    41   ar
    45    39    41   ar
    46    39    42    1
    47     4    43    1
    48     4    44    1
    49     5    45    1
    50     5    46    1
    51     9    47    1
    52     9    48    1
    53    10    49    1
    54    10    50    1
    55    11    51    1
    56    11    52    1
    57    12    53    1
    58    12    54    1
    59    14    55    1
    60    14    56    1
    61    15    57    1
    62    16    58    1
    63    17    59    1
    64    17    60    1
    65    19    61    1
    66    20    62    1
    67    20    63    1
    68    20    64    1
    69    22    65    1
    70    22    66    1
    71    26    67    1
    72    27    68    1
    73    27    69    1
    74    29    70    1
    75    30    71    1
    76    31    72    1
    77    31    73    1
    78    31    74    1
    79    32    75    1
    80    35    76    1
    81    40    77    1
    82    40    78    1
    83    40    79    1
    84    42    80    1
    85    42    81    1
    86    42    82    1
@<TRIPOS>MOLECULE
02228316B
 82 86 0 0 0
SMALL
GASTEIGER

@<TRIPOS>ATOM
      1 C         -10.6811    1.9428    2.6707 C.3     1  LIG1        0.2491
      2 C          -9.9610    1.8338    1.3404 C.2     1  LIG1        0.3556
      3 N          -9.7555    1.2866    3.6249 N.2     1  LIG1       -0.0687
      4 C         -10.9479    3.3819    3.1185 C.3     1  LIG1        0.0059
      5 C         -12.0302    1.2186    2.6656 C.3     1  LIG1        0.0059
      6 N          -8.7263    1.3119    1.6198 N.am    1  LIG1       -0.1529
      7 O         -10.4339    2.0868    0.2429 O.2     1  LIG1       -0.2422
      8 C          -8.7166    0.9587    2.9174 C.cat   1  LIG1        0.2916
      9 C         -12.4670    3.4961    3.2142 C.3     1  LIG1       -0.0481
     10 C         -12.9269    2.0846    3.5381 C.3     1  LIG1       -0.0481
     11 C          -7.8266    0.8979    0.5549 C.3     1  LIG1        0.1137
     12 C          -7.5900    0.1935    3.5721 C.3     1  LIG1        0.0509
     13 C          -7.3064    2.0181   -0.3197 C.ar    1  LIG1       -0.0073
     14 C          -8.0877   -1.1901    4.0018 C.3     1  LIG1       -0.0424
     15 C          -7.5816    2.0159   -1.6932 C.ar    1  LIG1       -0.0491
     16 C          -6.5154    3.0484    0.1873 C.ar    1  LIG1       -0.0544
     17 C          -6.9717   -2.0336    4.6156 C.3     1  LIG1       -0.0554
     18 C          -7.0326    2.9771   -2.5714 C.ar    1  LIG1       -0.0138
     19 C          -5.9815    4.0233   -0.6698 C.ar    1  LIG1       -0.0533
     20 C          -7.5029   -3.3575    5.1454 C.3     1  LIG1       -0.0653
     21 C          -6.1704    3.9823   -2.0636 C.ar    1  LIG1       -0.0106
     22 C          -7.5057    2.9301   -4.0115 C.3     1  LIG1        0.0732
     23 C          -5.5621    5.0181   -2.9346 C.ar    1  LIG1        0.0091
     24 O          -8.6927    3.7169   -4.0903 O.3     1  LIG1       -0.3754
     25 C          -4.1905    5.1535   -3.2487 C.ar    1  LIG1        0.1162
     26 C          -6.4479    5.9221   -3.5697 C.ar    1  LIG1       -0.0521
     27 C          -9.3291    3.6882   -5.3619 C.3     1  LIG1        0.0453
     28 S          -2.8602    4.2505   -2.4526 S.O2    1  LIG1        0.0741
     29 C          -3.7694    6.0990   -4.2126 C.ar    1  LIG1       -0.0345
     30 C          -6.0217    6.8531   -4.5213 C.ar    1  LIG1       -0.0611
     31 C         -10.2413    2.4821   -5.4879 C.3     1  LIG1       -0.0416
     32 N          -2.8651    2.7854   -3.2755 N.pl3   1  LIG1       -0.1965
     33 O          -1.6315    4.9414   -2.7830 O.2     1  LIG1       -0.1499
     34 O          -3.1874    4.0183   -1.0655 O.2     1  LIG1       -0.1499
     35 C          -4.6803    6.9305   -4.8553 C.ar    1  LIG1       -0.0599
     36 C          -2.0982    1.7258   -2.7922 C.ar    1  LIG1        0.1837
     37 C          -0.7477    1.6872   -2.3445 C.ar    1  LIG1        0.0342
     38 N          -2.6609    0.5149   -2.7526 N.ar    1  LIG1       -0.0614
     39 C          -0.5891    0.3808   -1.9253 C.ar    1  LIG1        0.1390
     40 C           0.2797    2.7541   -2.3103 C.3     1  LIG1       -0.0330
     41 O          -1.7236   -0.3196   -2.1801 O.2     1  LIG1       -0.3578
     42 C           0.5036   -0.3770   -1.2848 C.3     1  LIG1       -0.0034
     43 H         -10.5444    4.1313    2.4297 H       1  LIG1        0.0316
     44 H         -10.5100    3.5746    4.1064 H       1  LIG1        0.0316
     45 H         -11.9734    0.1936    3.0466 H       1  LIG1        0.0316
     46 H         -12.4508    1.1697    1.6536 H       1  LIG1        0.0316
     47 H         -12.8789    3.8144    2.2493 H       1  LIG1        0.0267
     48 H         -12.7810    4.2184    3.9730 H       1  LIG1        0.0267
     49 H         -12.7573    1.8600    4.5974 H       1  LIG1        0.0267
     50 H         -13.9882    1.9325    3.3204 H       1  LIG1        0.0267
     51 H          -8.3829    0.1783   -0.0591 H       1  LIG1        0.0783
     52 H          -6.9669    0.3536    0.9508 H       1  LIG1        0.0783
     53 H          -7.2702    0.7602    4.4549 H       1  LIG1        0.0387
     54 H          -6.7197    0.1023    2.9220 H       1  LIG1        0.0387
     55 H          -8.5169   -1.7156    3.1396 H       1  LIG1        0.0271
     56 H          -8.8996   -1.0763    4.7316 H       1  LIG1        0.0271
     57 H          -8.2618    1.2646   -2.0955 H       1  LIG1        0.0625
     58 H          -6.2959    3.1083    1.2507 H       1  LIG1        0.0622
     59 H          -6.4952   -1.4858    5.4365 H       1  LIG1        0.0263
     60 H          -6.1996   -2.2295    3.8625 H       1  LIG1        0.0263
     61 H          -5.3890    4.8235   -0.2260 H       1  LIG1        0.0624
     62 H          -8.2384   -3.1940    5.9404 H       1  LIG1        0.0230
     63 H          -6.6857   -3.9563    5.5598 H       1  LIG1        0.0230
     64 H          -7.9811   -3.9377    4.3502 H       1  LIG1        0.0230
     65 H          -7.7135    1.8935   -4.3008 H       1  LIG1        0.0610
     66 H          -6.7446    3.3109   -4.7001 H       1  LIG1        0.0610
     67 H          -7.5136    5.8832   -3.3363 H       1  LIG1        0.0624
     68 H          -8.5919    3.7246   -6.1711 H       1  LIG1        0.0557
     69 H          -9.9379    4.5960   -5.4314 H       1  LIG1        0.0557
     70 H          -2.7159    6.2010   -4.4720 H       1  LIG1        0.0637
     71 H          -6.7448    7.5071   -5.0020 H       1  LIG1        0.0618
     72 H          -9.6679    1.5506   -5.4936 H       1  LIG1        0.0252
     73 H         -10.8239    2.5342   -6.4128 H       1  LIG1        0.0252
     74 H         -10.9314    2.4291   -4.6393 H       1  LIG1        0.0252
     75 H          -3.8069    2.4763   -3.5089 H       1  LIG1        0.1753
     76 H          -4.3376    7.6467   -5.5984 H       1  LIG1        0.0618
     77 H           0.2514    3.3548   -3.2237 H       1  LIG1        0.0280
     78 H           1.2893    2.3338   -2.2493 H       1  LIG1        0.0280
     79 H           0.1377    3.4018   -1.4406 H       1  LIG1        0.0280
     80 H           1.4298    0.2041   -1.2457 H       1  LIG1        0.0309
     81 H           0.7080   -1.3016   -1.8320 H       1  LIG1        0.0309
     82 H           0.2285   -0.6375   -0.2575 H       1  LIG1        0.0309
@<TRIPOS>BOND
     1     1     5    1
     2     1     4    1
     3     1     2    1
     4     1     3    1
     5     2     6   am
     6     2     7    2
     7     3     8    2
     8     4     9    1
     9     5    10    1
    10     6     8    1
    11     6    11    1
    12     8    12    1
    13     9    10    1
    14    11    13    1
    15    12    14    1
    16    13    15   ar
    17    13    16   ar
    18    14    17    1
    19    15    18   ar
    20    16    19   ar
    21    17    20    1
    22    18    21   ar
    23    18    22    1
    24    19    21   ar
    25    21    23    1
    26    22    24    1
    27    23    26   ar
    28    23    25   ar
    29    24    27    1
    30    25    29   ar
    31    25    28    1
    32    26    30   ar
    33    27    31    1
    34    28    34    2
    35    28    33    2
    36    28    32    1
    37    29    35   ar
    38    30    35   ar
    39    32    36    1
    40    36    37   ar
    41    36    38   ar
    42    37    39   ar
    43    37    40    1
    44    38    41   ar
    45    39    41   ar
    46    39    42    1
    47     4    43    1
    48     4    44    1
    49     5    45    1
    50     5    46    1
    51     9    47    1
    52     9    48    1
    53    10    49    1
    54    10    50    1
    55    11    51    1
    56    11    52    1
    57    12    53    1
    58    12    54    1
    59    14    55    1
    60    14    56    1
    61    15    57    1
    62    16    58    1
    63    17    59    1
    64    17    60    1
    65    19    61    1
    66    20    62    1
    67    20    63    1
    68    20    64    1
    69    22    65    1
    70    22    66    1
    71    26    67    1
    72    27    68    1
    73    27    69    1
    74    29    70    1
    75    30    71    1
    76    31    72    1
    77    31    73    1
    78    31    74    1
    79    32    75    1
    80    35    76    1
    81    40    77    1
    82    40    78    1
    83    40    79    1
    84    42    80    1
    85    42    81    1
    86    42    82    1
@<TRIPOS>MOLECULE
02228316B
 82 86 0 0 0
SMALL
GASTEIGER

@<TRIPOS>ATOM
      1 C         -10.7366    1.9455    2.6965 C.3     1  LIG1        0.2491
      2 C         -10.0461    1.7944    1.3565 C.2     1  LIG1        0.3556
      3 N          -9.7905    1.3262    3.6556 N.2     1  LIG1       -0.0687
      4 C         -11.0038    3.3985    3.0996 C.3     1  LIG1        0.0059
      5 C         -12.0833    1.2147    2.7400 C.3     1  LIG1        0.0059
      6 N          -8.8106    1.2710    1.6285 N.am    1  LIG1       -0.1529
      7 O         -10.5360    2.0215    0.2607 O.2     1  LIG1       -0.2422
      8 C          -8.7668    0.9720    2.9378 C.cat   1  LIG1        0.2916
      9 C         -12.5209    3.5110    3.2080 C.3     1  LIG1       -0.0481
     10 C         -12.9716    2.1110    3.5910 C.3     1  LIG1       -0.0481
     11 C          -7.9198    0.8443    0.5604 C.3     1  LIG1        0.1137
     12 C          -7.6339    0.2167    3.5877 C.3     1  LIG1        0.0509
     13 C          -7.3981    1.9687   -0.3062 C.ar    1  LIG1       -0.0073
     14 C          -8.0969   -1.2090    3.9041 C.3     1  LIG1       -0.0424
     15 C          -7.6756    1.9790   -1.6794 C.ar    1  LIG1       -0.0491
     16 C          -6.6087    2.9947    0.2130 C.ar    1  LIG1       -0.0544
     17 C          -7.0436   -2.0495    4.6257 C.3     1  LIG1       -0.0554
     18 C          -7.1319    2.9511   -2.5480 C.ar    1  LIG1       -0.0138
     19 C          -6.0814    3.9813   -0.6326 C.ar    1  LIG1       -0.0533
     20 C          -5.9138   -2.4993    3.7136 C.3     1  LIG1       -0.0653
     21 C          -6.2788    3.9539   -2.0269 C.ar    1  LIG1       -0.0106
     22 C          -7.5847    2.9136   -3.9925 C.3     1  LIG1        0.0732
     23 C          -5.6724    5.0039   -2.8767 C.ar    1  LIG1        0.0091
     24 O          -8.7767    3.6915   -4.0835 O.3     1  LIG1       -0.3754
     25 C          -4.2997    5.1621   -3.1662 C.ar    1  LIG1        0.1162
     26 C          -6.5573    5.9333   -3.4797 C.ar    1  LIG1       -0.0521
     27 C          -9.3876    3.6735   -5.3663 C.3     1  LIG1        0.0453
     28 S          -2.9713    4.1914   -2.4652 S.O2    1  LIG1        0.0741
     29 C          -3.8667    6.1969   -4.0269 C.ar    1  LIG1       -0.0345
     30 C          -6.1233    6.9317   -4.3550 C.ar    1  LIG1       -0.0611
     31 C         -10.2882    2.4630   -5.5251 C.3     1  LIG1       -0.0416
     32 N          -2.6887    3.0229   -3.6735 N.pl3   1  LIG1       -0.1965
     33 O          -1.8253    5.0710   -2.3487 O.2     1  LIG1       -0.1499
     34 O          -3.4183    3.4396   -1.3156 O.2     1  LIG1       -0.1499
     35 C          -4.7730    7.0617   -4.6328 C.ar    1  LIG1       -0.0599
     36 C          -1.5119    3.1637   -4.4050 C.ar    1  LIG1        0.1837
     37 C          -1.4027    3.7211   -5.7020 C.ar    1  LIG1        0.0342
     38 N          -0.3502    2.6767   -3.9716 N.ar    1  LIG1       -0.0614
     39 C          -0.0483    3.6686   -5.9555 C.ar    1  LIG1        0.1390
     40 C          -2.4722    4.2255   -6.5895 C.3     1  LIG1       -0.0330
     41 O           0.5809    3.0434   -4.9248 O.2     1  LIG1       -0.3578
     42 C           0.8117    4.1169   -7.0674 C.3     1  LIG1       -0.0034
     43 H         -10.6090    4.1257    2.3813 H       1  LIG1        0.0316
     44 H         -10.5545    3.6253    4.0750 H       1  LIG1        0.0316
     45 H         -12.0146    0.2075    3.1602 H       1  LIG1        0.0316
     46 H         -12.5171    1.1245    1.7383 H       1  LIG1        0.0316
     47 H         -12.9455    3.7909    2.2363 H       1  LIG1        0.0267
     48 H         -12.8292    4.2611    3.9424 H       1  LIG1        0.0267
     49 H         -12.7865    1.9276    4.6551 H       1  LIG1        0.0267
     50 H         -14.0340    1.9471    3.3932 H       1  LIG1        0.0267
     51 H          -8.4884    0.1357   -0.0547 H       1  LIG1        0.0783
     52 H          -7.0677    0.2886    0.9550 H       1  LIG1        0.0783
     53 H          -7.3725    0.7354    4.5177 H       1  LIG1        0.0387
     54 H          -6.7398    0.2150    2.9630 H       1  LIG1        0.0387
     55 H          -8.4185   -1.7154    2.9851 H       1  LIG1        0.0271
     56 H          -8.9845   -1.1584    4.5484 H       1  LIG1        0.0271
     57 H          -8.3508    1.2281   -2.0900 H       1  LIG1        0.0625
     58 H          -6.3829    3.0395    1.2761 H       1  LIG1        0.0622
     59 H          -7.5307   -2.9426    5.0356 H       1  LIG1        0.0263
     60 H          -6.6340   -1.4939    5.4779 H       1  LIG1        0.0263
     61 H          -5.4729    4.7685   -0.1871 H       1  LIG1        0.0624
     62 H          -6.3031   -3.0686    2.8634 H       1  LIG1        0.0230
     63 H          -5.2231   -3.1455    4.2631 H       1  LIG1        0.0230
     64 H          -5.3452   -1.6483    3.3288 H       1  LIG1        0.0230
     65 H          -7.7796    1.8788   -4.2944 H       1  LIG1        0.0610
     66 H          -6.8168    3.3079   -4.6680 H       1  LIG1        0.0610
     67 H          -7.6269    5.8667   -3.2704 H       1  LIG1        0.0624
     68 H          -8.6350    3.7254   -6.1618 H       1  LIG1        0.0557
     69 H         -10.0015    4.5785   -5.4384 H       1  LIG1        0.0557
     70 H          -2.8062    6.3378   -4.2305 H       1  LIG1        0.0637
     71 H          -6.8437    7.6051   -4.8083 H       1  LIG1        0.0618
     72 H          -9.7077    1.5359   -5.5306 H       1  LIG1        0.0252
     73 H         -10.8528    2.5215   -6.4612 H       1  LIG1        0.0252
     74 H         -10.9943    2.3948   -4.6912 H       1  LIG1        0.0252
     75 H          -2.6944    2.1447   -3.1504 H       1  LIG1        0.1753
     76 H          -4.4207    7.8448   -5.3016 H       1  LIG1        0.0618
     77 H          -3.4660    3.9995   -6.1941 H       1  LIG1        0.0280
     78 H          -2.3994    3.7530   -7.5763 H       1  LIG1        0.0280
     79 H          -2.3886    5.3083   -6.7214 H       1  LIG1        0.0280
     80 H           0.2150    4.4881   -7.9052 H       1  LIG1        0.0309
     81 H           1.4338    3.2940   -7.4307 H       1  LIG1        0.0309
     82 H           1.4697    4.9273   -6.7353 H       1  LIG1        0.0309
@<TRIPOS>BOND
     1     1     5    1
     2     1     4    1
     3     1     2    1
     4     1     3    1
     5     2     6   am
     6     2     7    2
     7     3     8    2
     8     4     9    1
     9     5    10    1
    10     6     8    1
    11     6    11    1
    12     8    12    1
    13     9    10    1
    14    11    13    1
    15    12    14    1
    16    13    15   ar
    17    13    16   ar
    18    14    17    1
    19    15    18   ar
    20    16    19   ar
    21    17    20    1
    22    18    21   ar
    23    18    22    1
    24    19    21   ar
    25    21    23    1
    26    22    24    1
    27    23    26   ar
    28    23    25   ar
    29    24    27    1
    30    25    29   ar
    31    25    28    1
    32    26    30   ar
    33    27    31    1
    34    28    34    2
    35    28    33    2
    36    28    32    1
    37    29    35   ar
    38    30    35   ar
    39    32    36    1
    40    36    37   ar
    41    36    38   ar
    42    37    39   ar
    43    37    40    1
    44    38    41   ar
    45    39    41   ar
    46    39    42    1
    47     4    43    1
    48     4    44    1
    49     5    45    1
    50     5    46    1
    51     9    47    1
    52     9    48    1
    53    10    49    1
    54    10    50    1
    55    11    51    1
    56    11    52    1
    57    12    53    1
    58    12    54    1
    59    14    55    1
    60    14    56    1
    61    15    57    1
    62    16    58    1
    63    17    59    1
    64    17    60    1
    65    19    61    1
    66    20    62    1
    67    20    63    1
    68    20    64    1
    69    22    65    1
    70    22    66    1
    71    26    67    1
    72    27    68    1
    73    27    69    1
    74    29    70    1
    75    30    71    1
    76    31    72    1
    77    31    73    1
    78    31    74    1
    79    32    75    1
    80    35    76    1
    81    40    77    1
    82    40    78    1
    83    40    79    1
    84    42    80    1
    85    42    81    1
    86    42    82    1
@<TRIPOS>MOLECULE
02228316B
 82 86 0 0 0
SMALL
GASTEIGER

@<TRIPOS>ATOM
      1 C         -10.7416    1.9147    2.6706 C.3     1  LIG1        0.2491
      2 C         -10.0240    1.8338    1.3391 C.2     1  LIG1        0.3556
      3 N          -9.8289    1.2111    3.6033 N.2     1  LIG1       -0.0687
      4 C         -10.9748    3.3475    3.1578 C.3     1  LIG1        0.0059
      5 C         -12.1063    1.2219    2.6478 C.3     1  LIG1        0.0059
      6 N          -8.7889    1.3095    1.6066 N.am    1  LIG1       -0.1529
      7 O         -10.4999    2.1078    0.2460 O.2     1  LIG1       -0.2422
      8 C          -8.7922    0.8959    2.8869 C.cat   1  LIG1        0.2916
      9 C         -12.4908    3.4963    3.2462 C.3     1  LIG1       -0.0481
     10 C         -12.9847    2.0893    3.5372 C.3     1  LIG1       -0.0481
     11 C          -7.8887    0.9265    0.5332 C.3     1  LIG1        0.1137
     12 C          -7.6666    0.1023    3.5120 C.3     1  LIG1        0.0509
     13 C          -7.3992    2.0631   -0.3348 C.ar    1  LIG1       -0.0073
     14 C          -8.1676   -1.2029    4.1402 C.3     1  LIG1       -0.0424
     15 C          -7.6798    2.0579   -1.7067 C.ar    1  LIG1       -0.0491
     16 C          -6.6136    3.0978    0.1741 C.ar    1  LIG1       -0.0544
     17 C          -8.7404   -2.1781    3.1082 C.3     1  LIG1       -0.0554
     18 C          -7.1244    3.0103   -2.5868 C.ar    1  LIG1       -0.0138
     19 C          -6.0741    4.0671   -0.6843 C.ar    1  LIG1       -0.0533
     20 C          -9.1743   -3.4833    3.7589 C.3     1  LIG1       -0.0653
     21 C          -6.2569    4.0090   -2.0796 C.ar    1  LIG1       -0.0106
     22 C          -7.5720    2.9519   -4.0329 C.3     1  LIG1        0.0732
     23 C          -5.5980    5.0008   -2.9595 C.ar    1  LIG1        0.0091
     24 O          -8.7436    3.7578   -4.1433 O.3     1  LIG1       -0.3754
     25 C          -4.2167    5.0771   -3.2449 C.ar    1  LIG1        0.1162
     26 C          -6.4363    5.9330   -3.6166 C.ar    1  LIG1       -0.0521
     27 C          -9.4790    3.5664   -5.3449 C.3     1  LIG1        0.0453
     28 S          -2.9345    4.1282   -2.4291 S.O2    1  LIG1        0.0741
     29 C          -3.7341    6.0187   -4.1823 C.ar    1  LIG1       -0.0345
     30 C          -5.9516    6.8509   -4.5520 C.ar    1  LIG1       -0.0611
     31 C          -8.7977    4.2193   -6.5333 C.3     1  LIG1       -0.0416
     32 N          -2.4719    3.0249   -3.6487 N.pl3   1  LIG1       -0.1965
     33 O          -1.8472    5.0528   -2.1741 O.2     1  LIG1       -0.1499
     34 O          -3.4770    3.3156   -1.3672 O.2     1  LIG1       -0.1499
     35 C          -4.5977    6.8869   -4.8436 C.ar    1  LIG1       -0.0599
     36 C          -1.1419    2.5943   -3.5633 C.ar    1  LIG1        0.1837
     37 C           0.0207    3.2639   -4.0188 C.ar    1  LIG1        0.0342
     38 N          -0.8585    1.3966   -3.0495 N.ar    1  LIG1       -0.0614
     39 C           1.0440    2.4301   -3.6177 C.ar    1  LIG1        0.1390
     40 C           0.1343    4.5527   -4.7324 C.3     1  LIG1       -0.0330
     41 O           0.5220    1.3126   -3.0458 O.2     1  LIG1       -0.3578
     42 C           2.5164    2.5015   -3.6738 C.3     1  LIG1       -0.0034
     43 H         -10.5481    4.1057    2.4926 H       1  LIG1        0.0316
     44 H         -10.5385    3.5014    4.1530 H       1  LIG1        0.0316
     45 H         -12.0728    0.1881    3.0078 H       1  LIG1        0.0316
     46 H         -12.5262    1.2028    1.6346 H       1  LIG1        0.0316
     47 H         -12.8889    3.8445    2.2857 H       1  LIG1        0.0267
     48 H         -12.7925    4.2102    4.0186 H       1  LIG1        0.0267
     49 H         -12.8228    1.8377    4.5919 H       1  LIG1        0.0267
     50 H         -14.0486    1.9670    3.3143 H       1  LIG1        0.0267
     51 H          -8.4294    0.1944   -0.0803 H       1  LIG1        0.0783
     52 H          -7.0092    0.4057    0.9169 H       1  LIG1        0.0783
     53 H          -7.2345    0.7287    4.3017 H       1  LIG1        0.0387
     54 H          -6.8612   -0.1156    2.8115 H       1  LIG1        0.0387
     55 H          -8.9291   -0.9876    4.8998 H       1  LIG1        0.0271
     56 H          -7.3293   -1.6805    4.6625 H       1  LIG1        0.0271
     57 H          -8.3547    1.3018   -2.1072 H       1  LIG1        0.0625
     58 H          -6.3855    3.1510    1.2361 H       1  LIG1        0.0622
     59 H          -7.9900   -2.3907    2.3384 H       1  LIG1        0.0263
     60 H          -9.6059   -1.7326    2.6044 H       1  LIG1        0.0263
     61 H          -5.4540    4.8511   -0.2511 H       1  LIG1        0.0624
     62 H          -8.3259   -3.9871    4.2323 H       1  LIG1        0.0230
     63 H          -9.5951   -4.1599    3.0086 H       1  LIG1        0.0230
     64 H          -9.9390   -3.3064    4.5226 H       1  LIG1        0.0230
     65 H          -7.7966    1.9140   -4.3091 H       1  LIG1        0.0610
     66 H          -6.7902    3.3051   -4.7122 H       1  LIG1        0.0610
     67 H          -7.5083    5.9302   -3.4101 H       1  LIG1        0.0624
     68 H         -10.4550    4.0406   -5.1958 H       1  LIG1        0.0557
     69 H          -9.6600    2.5009   -5.5209 H       1  LIG1        0.0557
     70 H          -2.6686    6.0903   -4.3920 H       1  LIG1        0.0637
     71 H          -6.6389    7.5320   -5.0483 H       1  LIG1        0.0618
     72 H          -8.5616    5.2660   -6.3170 H       1  LIG1        0.0252
     73 H          -9.4423    4.1773   -7.4160 H       1  LIG1        0.0252
     74 H          -7.8555    3.7175   -6.7727 H       1  LIG1        0.0252
     75 H          -3.0560    2.2042   -3.4672 H       1  LIG1        0.1753
     76 H          -4.2110    7.6004   -5.5667 H       1  LIG1        0.0618
     77 H          -0.8148    4.8366   -5.1952 H       1  LIG1        0.0280
     78 H           0.8764    4.4837   -5.5352 H       1  LIG1        0.0280
     79 H           0.4417    5.3497   -4.0489 H       1  LIG1        0.0280
     80 H           2.8512    3.2951   -4.3484 H       1  LIG1        0.0309
     81 H           2.9387    1.5561   -4.0280 H       1  LIG1        0.0309
     82 H           2.9237    2.7086   -2.6789 H       1  LIG1        0.0309
@<TRIPOS>BOND
     1     1     5    1
     2     1     4    1
     3     1     2    1
     4     1     3    1
     5     2     6   am
     6     2     7    2
     7     3     8    2
     8     4     9    1
     9     5    10    1
    10     6     8    1
    11     6    11    1
    12     8    12    1
    13     9    10    1
    14    11    13    1
    15    12    14    1
    16    13    15   ar
    17    13    16   ar
    18    14    17    1
    19    15    18   ar
    20    16    19   ar
    21    17    20    1
    22    18    21   ar
    23    18    22    1
    24    19    21   ar
    25    21    23    1
    26    22    24    1
    27    23    26   ar
    28    23    25   ar
    29    24    27    1
    30    25    29   ar
    31    25    28    1
    32    26    30   ar
    33    27    31    1
    34    28    34    2
    35    28    33    2
    36    28    32    1
    37    29    35   ar
    38    30    35   ar
    39    32    36    1
    40    36    37   ar
    41    36    38   ar
    42    37    39   ar
    43    37    40    1
    44    38    41   ar
    45    39    41   ar
    46    39    42    1
    47     4    43    1
    48     4    44    1
    49     5    45    1
    50     5    46    1
    51     9    47    1
    52     9    48    1
    53    10    49    1
    54    10    50    1
    55    11    51    1
    56    11    52    1
    57    12    53    1
    58    12    54    1
    59    14    55    1
    60    14    56    1
    61    15    57    1
    62    16    58    1
    63    17    59    1
    64    17    60    1
    65    19    61    1
    66    20    62    1
    67    20    63    1
    68    20    64    1
    69    22    65    1
    70    22    66    1
    71    26    67    1
    72    27    68    1
    73    27    69    1
    74    29    70    1
    75    30    71    1
    76    31    72    1
    77    31    73    1
    78    31    74    1
    79    32    75    1
    80    35    76    1
    81    40    77    1
    82    40    78    1
    83    40    79    1
    84    42    80    1
    85    42    81    1
    86    42    82    1
@<TRIPOS>MOLECULE
02228316B
 82 86 0 0 0
SMALL
GASTEIGER

@<TRIPOS>ATOM
      1 C         -10.7477    1.8986    2.6904 C.3     1  LIG1        0.2491
      2 C         -10.0411    1.7964    1.3541 C.2     1  LIG1        0.3556
      3 N          -9.8293    1.2078    3.6267 N.2     1  LIG1       -0.0687
      4 C         -10.9768    3.3387    3.1575 C.3     1  LIG1        0.0059
      5 C         -12.1133    1.2067    2.6843 C.3     1  LIG1        0.0059
      6 N          -8.8106    1.2583    1.6174 N.am    1  LIG1       -0.1529
      7 O         -10.5196    2.0670    0.2642 O.2     1  LIG1       -0.2422
      8 C          -8.8014    0.8738    2.9062 C.cat   1  LIG1        0.2916
      9 C         -12.4928    3.4917    3.2465 C.3     1  LIG1       -0.0481
     10 C         -12.9885    2.0905    3.5606 C.3     1  LIG1       -0.0481
     11 C          -7.9210    0.8596    0.5399 C.3     1  LIG1        0.1137
     12 C          -7.6741    0.0866    3.5347 C.3     1  LIG1        0.0509
     13 C          -7.4138    1.9936   -0.3213 C.ar    1  LIG1       -0.0073
     14 C          -8.1722   -1.2249    4.1520 C.3     1  LIG1       -0.0424
     15 C          -7.6866    2.0010   -1.6955 C.ar    1  LIG1       -0.0491
     16 C          -6.6324    3.0241    0.2017 C.ar    1  LIG1       -0.0544
     17 C          -8.7390   -2.1954    3.1125 C.3     1  LIG1       -0.0554
     18 C          -7.1426    2.9740   -2.5615 C.ar    1  LIG1       -0.0138
     19 C          -6.1047    4.0114   -0.6421 C.ar    1  LIG1       -0.0533
     20 C          -9.1730   -3.5048    3.7547 C.3     1  LIG1       -0.0653
     21 C          -6.2947    3.9799   -2.0377 C.ar    1  LIG1       -0.0106
     22 C          -7.5880    2.9335   -4.0079 C.3     1  LIG1        0.0732
     23 C          -5.6851    5.0269   -2.8870 C.ar    1  LIG1        0.0091
     24 O          -8.7822    3.7079   -4.1039 O.3     1  LIG1       -0.3754
     25 C          -4.3116    5.1782   -3.1728 C.ar    1  LIG1        0.1162
     26 C          -6.5659    5.9561   -3.4925 C.ar    1  LIG1       -0.0521
     27 C          -9.3944    3.6777   -5.3866 C.3     1  LIG1        0.0453
     28 S          -2.9856    4.2039   -2.4663 S.O2    1  LIG1        0.0741
     29 C          -3.8735    6.2115   -4.0349 C.ar    1  LIG1       -0.0345
     30 C          -6.1261    6.9530   -4.3682 C.ar    1  LIG1       -0.0611
     31 C         -10.2909    2.4625   -5.5343 C.3     1  LIG1       -0.0416
     32 N          -2.7099    3.0302   -3.6732 N.pl3   1  LIG1       -0.1965
     33 O          -1.8382    5.0814   -2.3503 O.2     1  LIG1       -0.1499
     34 O          -3.4400    3.4577   -1.3166 O.2     1  LIG1       -0.1499
     35 C          -4.7750    7.0798   -4.6426 C.ar    1  LIG1       -0.0599
     36 C          -1.5311    3.1630   -4.4035 C.ar    1  LIG1        0.1837
     37 C          -1.4151    3.7198   -5.6996 C.ar    1  LIG1        0.0342
     38 N          -0.3735    2.6678   -3.9668 N.ar    1  LIG1       -0.0614
     39 C          -0.0601    3.6606   -5.9493 C.ar    1  LIG1        0.1390
     40 C          -2.4791    4.2308   -6.5897 C.3     1  LIG1       -0.0330
     41 O           0.5641    3.0316   -4.9179 O.2     1  LIG1       -0.3578
     42 C           0.8057    4.1055   -7.0576 C.3     1  LIG1       -0.0034
     43 H         -10.5498    4.0864    2.4815 H       1  LIG1        0.0316
     44 H         -10.5390    3.5054    4.1497 H       1  LIG1        0.0316
     45 H         -12.0794    0.1793    3.0615 H       1  LIG1        0.0316
     46 H         -12.5363    1.1708    1.6725 H       1  LIG1        0.0316
     47 H         -12.8921    3.8251    2.2814 H       1  LIG1        0.0267
     48 H         -12.7915    4.2179    4.0079 H       1  LIG1        0.0267
     49 H         -12.8254    1.8551    4.6189 H       1  LIG1        0.0267
     50 H         -14.0529    1.9664    3.3413 H       1  LIG1        0.0267
     51 H          -8.4796    0.1441   -0.0772 H       1  LIG1        0.0783
     52 H          -7.0525    0.3173    0.9191 H       1  LIG1        0.0783
     53 H          -7.2528    0.7113    4.3320 H       1  LIG1        0.0387
     54 H          -6.8616   -0.1192    2.8390 H       1  LIG1        0.0387
     55 H          -8.9376   -1.0165    4.9098 H       1  LIG1        0.0271
     56 H          -7.3346   -1.7027    4.6748 H       1  LIG1        0.0271
     57 H          -8.3549    1.2453   -2.1082 H       1  LIG1        0.0625
     58 H          -6.4096    3.0686    1.2649 H       1  LIG1        0.0622
     59 H          -7.9849   -2.4025    2.3446 H       1  LIG1        0.0263
     60 H          -9.6033   -1.7495    2.6078 H       1  LIG1        0.0263
     61 H          -5.4999    4.8003   -0.1964 H       1  LIG1        0.0624
     62 H          -8.3256   -4.0097    4.2291 H       1  LIG1        0.0230
     63 H          -9.5897   -4.1782    2.9991 H       1  LIG1        0.0230
     64 H          -9.9410   -3.3331    4.5160 H       1  LIG1        0.0230
     65 H          -7.7789    1.8968   -4.3090 H       1  LIG1        0.0610
     66 H          -6.8191    3.3285   -4.6803 H       1  LIG1        0.0610
     67 H          -7.6360    5.8935   -3.2853 H       1  LIG1        0.0624
     68 H          -8.6428    3.7253   -6.1822 H       1  LIG1        0.0557
     69 H         -10.0121    4.5795   -5.4636 H       1  LIG1        0.0557
     70 H          -2.8114    6.3487   -4.2367 H       1  LIG1        0.0637
     71 H          -6.8445    7.6295   -4.8235 H       1  LIG1        0.0618
     72 H          -9.7067    1.5375   -5.5326 H       1  LIG1        0.0252
     73 H         -10.8572    2.5119   -6.4687 H       1  LIG1        0.0252
     74 H         -10.9952    2.3979   -4.6978 H       1  LIG1        0.0252
     75 H          -2.7211    2.1532   -3.1479 H       1  LIG1        0.1753
     76 H          -4.4194    7.8599   -5.3113 H       1  LIG1        0.0618
     77 H          -3.4757    4.0085   -6.1974 H       1  LIG1        0.0280
     78 H          -2.4057    3.7594   -7.5763 H       1  LIG1        0.0280
     79 H          -2.3900    5.3134   -6.7189 H       1  LIG1        0.0280
     80 H           0.2131    4.4791   -7.8980 H       1  LIG1        0.0309
     81 H           1.4261    3.2804   -7.4193 H       1  LIG1        0.0309
     82 H           1.4648    4.9135   -6.7238 H       1  LIG1        0.0309
@<TRIPOS>BOND
     1     1     5    1
     2     1     4    1
     3     1     2    1
     4     1     3    1
     5     2     6   am
     6     2     7    2
     7     3     8    2
     8     4     9    1
     9     5    10    1
    10     6     8    1
    11     6    11    1
    12     8    12    1
    13     9    10    1
    14    11    13    1
    15    12    14    1
    16    13    15   ar
    17    13    16   ar
    18    14    17    1
    19    15    18   ar
    20    16    19   ar
    21    17    20    1
    22    18    21   ar
    23    18    22    1
    24    19    21   ar
    25    21    23    1
    26    22    24    1
    27    23    26   ar
    28    23    25   ar
    29    24    27    1
    30    25    29   ar
    31    25    28    1
    32    26    30   ar
    33    27    31    1
    34    28    34    2
    35    28    33    2
    36    28    32    1
    37    29    35   ar
    38    30    35   ar
    39    32    36    1
    40    36    37   ar
    41    36    38   ar
    42    37    39   ar
    43    37    40    1
    44    38    41   ar
    45    39    41   ar
    46    39    42    1
    47     4    43    1
    48     4    44    1
    49     5    45    1
    50     5    46    1
    51     9    47    1
    52     9    48    1
    53    10    49    1
    54    10    50    1
    55    11    51    1
    56    11    52    1
    57    12    53    1
    58    12    54    1
    59    14    55    1
    60    14    56    1
    61    15    57    1
    62    16    58    1
    63    17    59    1
    64    17    60    1
    65    19    61    1
    66    20    62    1
    67    20    63    1
    68    20    64    1
    69    22    65    1
    70    22    66    1
    71    26    67    1
    72    27    68    1
    73    27    69    1
    74    29    70    1
    75    30    71    1
    76    31    72    1
    77    31    73    1
    78    31    74    1
    79    32    75    1
    80    35    76    1
    81    40    77    1
    82    40    78    1
    83    40    79    1
    84    42    80    1
    85    42    81    1
    86    42    82    1
@<TRIPOS>MOLECULE
02228316B
 82 86 0 0 0
SMALL
GASTEIGER

@<TRIPOS>ATOM
      1 C          -8.5977    1.9402    4.1194 C.3     1  LIG1        0.2491
      2 C          -7.5897    1.6738    3.0238 C.2     1  LIG1        0.3556
      3 N          -9.7843    1.1779    3.6769 N.2     1  LIG1       -0.0687
      4 C          -8.1388    1.4820    5.5047 C.3     1  LIG1        0.0059
      5 C          -8.9535    3.4271    4.2338 C.3     1  LIG1        0.0059
      6 N          -8.3023    1.1535    1.9768 N.am    1  LIG1       -0.1529
      7 O          -6.3845    1.8543    3.1031 O.2     1  LIG1       -0.2422
      8 C          -9.5085    0.7949    2.4668 C.cat   1  LIG1        0.2916
      9 C          -8.0175    2.7645    6.3222 C.3     1  LIG1       -0.0481
     10 C          -9.0844    3.6696    5.7316 C.3     1  LIG1       -0.0481
     11 C          -7.6642    0.7283    0.7327 C.3     1  LIG1        0.1137
     12 C         -10.4933   -0.0171    1.6514 C.3     1  LIG1        0.0509
     13 C          -7.3168    1.8475   -0.2327 C.ar    1  LIG1       -0.0073
     14 C         -11.6796   -0.5659    2.4527 C.3     1  LIG1       -0.0424
     15 C          -7.7856    1.8464   -1.5537 C.ar    1  LIG1       -0.0491
     16 C          -6.4361    2.8623    0.1210 C.ar    1  LIG1       -0.0544
     17 C         -12.7499    0.4831    2.7661 C.3     1  LIG1       -0.0554
     18 C          -7.3475    2.7989   -2.5201 C.ar    1  LIG1       -0.0138
     19 C          -6.0360    3.8253   -0.8083 C.ar    1  LIG1       -0.0533
     20 C         -13.8833   -0.1164    3.5870 C.3     1  LIG1       -0.0653
     21 C          -6.4091    3.8007   -2.1567 C.ar    1  LIG1       -0.0106
     22 C          -7.9606    2.6837   -3.9051 C.3     1  LIG1        0.0732
     23 C          -5.8526    4.8319   -3.0846 C.ar    1  LIG1        0.0091
     24 O          -7.0081    2.5549   -4.9523 O.3     1  LIG1       -0.3754
     25 C          -4.4776    5.1115   -3.3289 C.ar    1  LIG1        0.1162
     26 C          -6.7755    5.6574   -3.7709 C.ar    1  LIG1       -0.0521
     27 C          -6.4547    1.2451   -5.0375 C.3     1  LIG1        0.0453
     28 S          -3.0985    4.3676   -2.4495 S.O2    1  LIG1        0.0741
     29 C          -4.0995    6.0641   -4.3012 C.ar    1  LIG1       -0.0345
     30 C          -6.3831    6.6163   -4.7131 C.ar    1  LIG1       -0.0611
     31 C          -5.6574    1.1537   -6.3226 C.3     1  LIG1       -0.0416
     32 N          -3.0106    5.2540   -1.0077 N.pl3   1  LIG1       -0.1965
     33 O          -3.4605    3.0222   -2.0736 O.2     1  LIG1       -0.1499
     34 O          -1.8757    4.5914   -3.2058 O.2     1  LIG1       -0.1499
     35 C          -5.0412    6.8067   -4.9922 C.ar    1  LIG1       -0.0599
     36 C          -3.2041    6.6327   -0.9940 C.ar    1  LIG1        0.1837
     37 C          -4.0906    7.3485   -0.1393 C.ar    1  LIG1        0.0342
     38 N          -2.5592    7.4590   -1.8212 N.ar    1  LIG1       -0.0614
     39 C          -3.9539    8.6570   -0.5547 C.ar    1  LIG1        0.1390
     40 C          -5.0271    6.8544    0.8950 C.3     1  LIG1       -0.0330
     41 O          -3.0256    8.7255   -1.5412 O.2     1  LIG1       -0.3578
     42 C          -4.5971    9.9274   -0.1675 C.3     1  LIG1       -0.0034
     43 H          -7.1871    0.9405    5.4925 H       1  LIG1        0.0316
     44 H          -8.8837    0.8238    5.9682 H       1  LIG1        0.0316
     45 H          -9.8772    3.6955    3.7096 H       1  LIG1        0.0316
     46 H          -8.1498    4.0556    3.8306 H       1  LIG1        0.0316
     47 H          -7.0253    3.2095    6.1799 H       1  LIG1        0.0267
     48 H          -8.1629    2.5896    7.3919 H       1  LIG1        0.0267
     49 H         -10.0780    3.3629    6.0798 H       1  LIG1        0.0267
     50 H          -8.9368    4.7202    5.9968 H       1  LIG1        0.0267
     51 H          -8.3059    0.0047    0.2227 H       1  LIG1        0.0783
     52 H          -6.7376    0.1989    0.9878 H       1  LIG1        0.0783
     53 H          -9.9539   -0.8781    1.2408 H       1  LIG1        0.0387
     54 H         -10.8377    0.5907    0.8076 H       1  LIG1        0.0387
     55 H         -11.3224   -1.0233    3.3840 H       1  LIG1        0.0271
     56 H         -12.1453   -1.3700    1.8690 H       1  LIG1        0.0271
     57 H          -8.4877    1.0715   -1.8613 H       1  LIG1        0.0625
     58 H          -6.0036    2.9157    1.1145 H       1  LIG1        0.0622
     59 H         -13.1555    0.8892    1.8328 H       1  LIG1        0.0263
     60 H         -12.3242    1.3232    3.3233 H       1  LIG1        0.0263
     61 H          -5.3858    4.6034   -0.4507 H       1  LIG1        0.0624
     62 H         -14.3782   -0.9262    3.0416 H       1  LIG1        0.0230
     63 H         -14.6329    0.6479    3.8150 H       1  LIG1        0.0230
     64 H         -13.5114   -0.5184    4.5353 H       1  LIG1        0.0230
     65 H          -8.5639    3.5752   -4.1019 H       1  LIG1        0.0610
     66 H          -8.6749    1.8521   -3.9602 H       1  LIG1        0.0610
     67 H          -7.8400    5.5619   -3.5742 H       1  LIG1        0.0624
     68 H          -7.2550    0.4964   -5.0539 H       1  LIG1        0.0557
     69 H          -5.8051    1.0592   -4.1764 H       1  LIG1        0.0557
     70 H          -3.0408    6.2621   -4.4975 H       1  LIG1        0.0637
     71 H          -7.1337    7.2081   -5.2311 H       1  LIG1        0.0618
     72 H          -6.2999    1.3549   -7.1868 H       1  LIG1        0.0252
     73 H          -5.2157    0.1601   -6.4368 H       1  LIG1        0.0252
     74 H          -4.8599    1.9033   -6.3369 H       1  LIG1        0.0252
     75 H          -3.3229    4.7013   -0.2184 H       1  LIG1        0.1753
     76 H          -4.7240    7.5449   -5.7243 H       1  LIG1        0.0618
     77 H          -4.6470    5.9542    1.3857 H       1  LIG1        0.0280
     78 H          -5.9976    6.6252    0.4409 H       1  LIG1        0.0280
     79 H          -5.1995    7.6084    1.6695 H       1  LIG1        0.0280
     80 H          -5.6609    9.7728    0.0410 H       1  LIG1        0.0309
     81 H          -4.5194   10.6720   -0.9658 H       1  LIG1        0.0309
     82 H          -4.1275   10.3352    0.7326 H       1  LIG1        0.0309
@<TRIPOS>BOND
     1     1     5    1
     2     1     4    1
     3     1     2    1
     4     1     3    1
     5     2     6   am
     6     2     7    2
     7     3     8    2
     8     4     9    1
     9     5    10    1
    10     6     8    1
    11     6    11    1
    12     8    12    1
    13     9    10    1
    14    11    13    1
    15    12    14    1
    16    13    15   ar
    17    13    16   ar
    18    14    17    1
    19    15    18   ar
    20    16    19   ar
    21    17    20    1
    22    18    21   ar
    23    18    22    1
    24    19    21   ar
    25    21    23    1
    26    22    24    1
    27    23    26   ar
    28    23    25   ar
    29    24    27    1
    30    25    29   ar
    31    25    28    1
    32    26    30   ar
    33    27    31    1
    34    28    34    2
    35    28    33    2
    36    28    32    1
    37    29    35   ar
    38    30    35   ar
    39    32    36    1
    40    36    37   ar
    41    36    38   ar
    42    37    39   ar
    43    37    40    1
    44    38    41   ar
    45    39    41   ar
    46    39    42    1
    47     4    43    1
    48     4    44    1
    49     5    45    1
    50     5    46    1
    51     9    47    1
    52     9    48    1
    53    10    49    1
    54    10    50    1
    55    11    51    1
    56    11    52    1
    57    12    53    1
    58    12    54    1
    59    14    55    1
    60    14    56    1
    61    15    57    1
    62    16    58    1
    63    17    59    1
    64    17    60    1
    65    19    61    1
    66    20    62    1
    67    20    63    1
    68    20    64    1
    69    22    65    1
    70    22    66    1
    71    26    67    1
    72    27    68    1
    73    27    69    1
    74    29    70    1
    75    30    71    1
    76    31    72    1
    77    31    73    1
    78    31    74    1
    79    32    75    1
    80    35    76    1
    81    40    77    1
    82    40    78    1
    83    40    79    1
    84    42    80    1
    85    42    81    1
    86    42    82    1
@<TRIPOS>MOLECULE
02228316B
 82 86 0 0 0
SMALL
GASTEIGER

@<TRIPOS>ATOM
      1 C         -10.7059    1.9381    2.6905 C.3     1  LIG1        0.2491
      2 C          -9.9962    1.8250    1.3559 C.2     1  LIG1        0.3556
      3 N          -9.7736    1.2866    3.6418 N.2     1  LIG1       -0.0687
      4 C         -10.9680    3.3804    3.1321 C.3     1  LIG1        0.0059
      5 C         -12.0555    1.2153    2.6969 C.3     1  LIG1        0.0059
      6 N          -8.7560    1.3136    1.6320 N.am    1  LIG1       -0.1529
      7 O         -10.4788    2.0677    0.2615 O.2     1  LIG1       -0.2422
      8 C          -8.7362    0.9634    2.9292 C.cat   1  LIG1        0.2916
      9 C         -12.4867    3.4994    3.2233 C.3     1  LIG1       -0.0481
     10 C         -12.9499    2.0923    3.5605 C.3     1  LIG1       -0.0481
     11 C          -7.8542    0.9164    0.5638 C.3     1  LIG1        0.1137
     12 C          -7.6033    0.2032    3.5781 C.3     1  LIG1        0.0509
     13 C          -7.3526    2.0498   -0.3017 C.ar    1  LIG1       -0.0073
     14 C          -8.0913   -1.1861    4.0004 C.3     1  LIG1       -0.0424
     15 C          -7.6113    2.0367   -1.6778 C.ar    1  LIG1       -0.0491
     16 C          -6.5907    3.0989    0.2138 C.ar    1  LIG1       -0.0544
     17 C          -6.9709   -2.0248    4.6126 C.3     1  LIG1       -0.0554
     18 C          -7.0714    3.0055   -2.5505 C.ar    1  LIG1       -0.0138
     19 C          -6.0662    4.0824   -0.6390 C.ar    1  LIG1       -0.0533
     20 C          -7.4953   -3.3532    5.1380 C.3     1  LIG1       -0.0653
     21 C          -6.2393    4.0289   -2.0351 C.ar    1  LIG1       -0.0106
     22 C          -7.4978    2.9354   -4.0018 C.3     1  LIG1        0.0732
     23 C          -5.6228    5.0565   -2.9070 C.ar    1  LIG1        0.0091
     24 O          -8.6967    3.7046   -4.1178 O.3     1  LIG1       -0.3754
     25 C          -4.2497    5.1741   -3.2147 C.ar    1  LIG1        0.1162
     26 C          -6.4973    5.9683   -3.5449 C.ar    1  LIG1       -0.0521
     27 C          -9.2989    3.6500   -5.4039 C.3     1  LIG1        0.0453
     28 S          -2.9514    4.2216   -2.4474 S.O2    1  LIG1        0.0741
     29 C          -3.8073    6.1311   -4.1568 C.ar    1  LIG1       -0.0345
     30 C          -6.0532    6.9041   -4.4832 C.ar    1  LIG1       -0.0611
     31 C         -10.2086    2.4415   -5.5259 C.3     1  LIG1       -0.0416
     32 N          -2.6482    3.0053   -3.5815 N.pl3   1  LIG1       -0.1965
     33 O          -1.7474    5.0356   -2.4778 O.2     1  LIG1       -0.1499
     34 O          -3.3558    3.6387   -1.1911 O.2     1  LIG1       -0.1499
     35 C          -4.7059    6.9788   -4.7981 C.ar    1  LIG1       -0.0599
     36 C          -3.1737    1.7477   -3.3143 C.ar    1  LIG1        0.1837
     37 C          -2.5988    0.7481   -2.4889 C.ar    1  LIG1        0.0342
     38 N          -4.2902    1.3258   -3.9085 N.ar    1  LIG1       -0.0614
     39 C          -3.4851   -0.3022   -2.6025 C.ar    1  LIG1        0.1390
     40 C          -1.3780    0.8117   -1.6539 C.3     1  LIG1       -0.0330
     41 O          -4.4914    0.0387   -3.4498 O.2     1  LIG1       -0.3578
     42 C          -3.5633   -1.6534   -2.0187 C.3     1  LIG1       -0.0034
     43 H         -10.5598    4.1256    2.4417 H       1  LIG1        0.0316
     44 H         -10.5321    3.5748    4.1202 H       1  LIG1        0.0316
     45 H         -11.9983    0.1947    3.0901 H       1  LIG1        0.0316
     46 H         -12.4783    1.1540    1.6865 H       1  LIG1        0.0316
     47 H         -12.8959    3.8090    2.2544 H       1  LIG1        0.0267
     48 H         -12.8003    4.2301    3.9745 H       1  LIG1        0.0267
     49 H         -12.7806    1.8773    4.6221 H       1  LIG1        0.0267
     50 H         -14.0114    1.9402    3.3444 H       1  LIG1        0.0267
     51 H          -8.4026    0.1929   -0.0530 H       1  LIG1        0.0783
     52 H          -6.9862    0.3814    0.9550 H       1  LIG1        0.0783
     53 H          -7.2858    0.7671    4.4635 H       1  LIG1        0.0387
     54 H          -6.7336    0.1212    2.9258 H       1  LIG1        0.0387
     55 H          -8.5152   -1.7108    3.1349 H       1  LIG1        0.0271
     56 H          -8.9056   -1.0816    4.7292 H       1  LIG1        0.0271
     57 H          -8.2597    1.2648   -2.0916 H       1  LIG1        0.0625
     58 H          -6.3793    3.1611    1.2783 H       1  LIG1        0.0622
     59 H          -6.4984   -1.4769    5.4359 H       1  LIG1        0.0263
     60 H          -6.1971   -2.2141    3.8599 H       1  LIG1        0.0263
     61 H          -5.4754    4.8848   -0.1990 H       1  LIG1        0.0624
     62 H          -8.2323   -3.1962    5.9326 H       1  LIG1        0.0230
     63 H          -6.6754   -3.9490    5.5513 H       1  LIG1        0.0230
     64 H          -7.9699   -3.9337    4.3405 H       1  LIG1        0.0230
     65 H          -7.6835    1.8937   -4.2880 H       1  LIG1        0.0610
     66 H          -6.7264    3.3244   -4.6742 H       1  LIG1        0.0610
     67 H          -7.5660    5.9265   -3.3278 H       1  LIG1        0.0624
     68 H          -8.5425    3.6699   -6.1957 H       1  LIG1        0.0557
     69 H          -9.9062    4.5559   -5.5073 H       1  LIG1        0.0557
     70 H          -2.7500    6.2196   -4.4036 H       1  LIG1        0.0637
     71 H          -6.7676    7.5629   -4.9705 H       1  LIG1        0.0618
     72 H          -9.6355    1.5104   -5.4972 H       1  LIG1        0.0252
     73 H         -10.7690    2.4737   -6.4649 H       1  LIG1        0.0252
     74 H         -10.9188    2.4071   -4.6928 H       1  LIG1        0.0252
     75 H          -1.6441    3.0270   -3.7504 H       1  LIG1        0.1753
     76 H          -4.3520    7.6989   -5.5316 H       1  LIG1        0.0618
     77 H          -0.8162    1.7357   -1.8207 H       1  LIG1        0.0280
     78 H          -0.7130   -0.0286   -1.8782 H       1  LIG1        0.0280
     79 H          -1.6415    0.7663   -0.5919 H       1  LIG1        0.0280
     80 H          -2.8055   -1.7953   -1.2423 H       1  LIG1        0.0309
     81 H          -3.4057   -2.4116   -2.7917 H       1  LIG1        0.0309
     82 H          -4.5457   -1.8194   -1.5661 H       1  LIG1        0.0309
@<TRIPOS>BOND
     1     1     5    1
     2     1     4    1
     3     1     2    1
     4     1     3    1
     5     2     6   am
     6     2     7    2
     7     3     8    2
     8     4     9    1
     9     5    10    1
    10     6     8    1
    11     6    11    1
    12     8    12    1
    13     9    10    1
    14    11    13    1
    15    12    14    1
    16    13    15   ar
    17    13    16   ar
    18    14    17    1
    19    15    18   ar
    20    16    19   ar
    21    17    20    1
    22    18    21   ar
    23    18    22    1
    24    19    21   ar
    25    21    23    1
    26    22    24    1
    27    23    26   ar
    28    23    25   ar
    29    24    27    1
    30    25    29   ar
    31    25    28    1
    32    26    30   ar
    33    27    31    1
    34    28    34    2
    35    28    33    2
    36    28    32    1
    37    29    35   ar
    38    30    35   ar
    39    32    36    1
    40    36    37   ar
    41    36    38   ar
    42    37    39   ar
    43    37    40    1
    44    38    41   ar
    45    39    41   ar
    46    39    42    1
    47     4    43    1
    48     4    44    1
    49     5    45    1
    50     5    46    1
    51     9    47    1
    52     9    48    1
    53    10    49    1
    54    10    50    1
    55    11    51    1
    56    11    52    1
    57    12    53    1
    58    12    54    1
    59    14    55    1
    60    14    56    1
    61    15    57    1
    62    16    58    1
    63    17    59    1
    64    17    60    1
    65    19    61    1
    66    20    62    1
    67    20    63    1
    68    20    64    1
    69    22    65    1
    70    22    66    1
    71    26    67    1
    72    27    68    1
    73    27    69    1
    74    29    70    1
    75    30    71    1
    76    31    72    1
    77    31    73    1
    78    31    74    1
    79    32    75    1
    80    35    76    1
    81    40    77    1
    82    40    78    1
    83    40    79    1
    84    42    80    1
    85    42    81    1
    86    42    82    1
@<TRIPOS>MOLECULE
02228316B
 82 86 0 0 0
SMALL
GASTEIGER

@<TRIPOS>ATOM
      1 C         -11.1908    1.6112    2.0096 C.3     1  LIG1        0.2491
      2 C          -9.7326    1.9347    1.7487 C.2     1  LIG1        0.3556
      3 N         -11.3159    0.1924    1.5886 N.2     1  LIG1       -0.0687
      4 C         -11.6131    1.7690    3.4732 C.3     1  LIG1        0.0059
      5 C         -12.1421    2.4750    1.1787 C.3     1  LIG1        0.0059
      6 N          -9.2476    0.8800    1.0245 N.am    1  LIG1       -0.1529
      7 O          -9.1214    2.9144    2.1456 O.2     1  LIG1       -0.2422
      8 C         -10.1733   -0.1000    1.0485 C.cat   1  LIG1        0.2916
      9 C         -12.7591    2.7785    3.4572 C.3     1  LIG1       -0.0481
     10 C         -13.3644    2.6364    2.0712 C.3     1  LIG1       -0.0481
     11 C          -7.8458    0.7659    0.6646 C.3     1  LIG1        0.1137
     12 C          -9.8703   -1.4641    0.4698 C.3     1  LIG1        0.0509
     13 C          -7.3782    1.8198   -0.3077 C.ar    1  LIG1       -0.0073
     14 C         -10.9561   -2.5194    0.6772 C.3     1  LIG1       -0.0424
     15 C          -7.8189    1.8556   -1.6330 C.ar    1  LIG1       -0.0491
     16 C          -6.4709    2.7861    0.0997 C.ar    1  LIG1       -0.0544
     17 C         -12.1797   -2.3163   -0.2185 C.3     1  LIG1       -0.0554
     18 C          -7.3240    2.8075   -2.5684 C.ar    1  LIG1       -0.0138
     19 C          -5.9967    3.7336   -0.8093 C.ar    1  LIG1       -0.0533
     20 C         -13.1819   -3.4469   -0.0397 C.3     1  LIG1       -0.0653
     21 C          -6.3442    3.7594   -2.1682 C.ar    1  LIG1       -0.0106
     22 C          -7.9393    2.7416   -3.9553 C.3     1  LIG1        0.0732
     23 C          -5.7357    4.7969   -3.0659 C.ar    1  LIG1        0.0091
     24 O          -6.9924    2.5706   -5.0004 O.3     1  LIG1       -0.3754
     25 C          -4.3539    5.0861   -3.2425 C.ar    1  LIG1        0.1162
     26 C          -6.6191    5.6200   -3.8044 C.ar    1  LIG1       -0.0521
     27 C          -6.4952    1.2379   -5.0753 C.3     1  LIG1        0.0453
     28 S          -3.0105    4.3753   -2.2828 S.O2    1  LIG1        0.0741
     29 C          -3.9236    6.0330   -4.2045 C.ar    1  LIG1       -0.0345
     30 C          -6.1859    6.5646   -4.7439 C.ar    1  LIG1       -0.0611
     31 C          -5.7113    1.1016   -6.3635 C.3     1  LIG1       -0.0416
     32 N          -3.0059    5.2921   -0.8567 N.pl3   1  LIG1       -0.1965
     33 O          -3.3700    3.0261   -1.8979 O.2     1  LIG1       -0.1499
     34 O          -1.7665    4.6043   -2.9785 O.2     1  LIG1       -0.1499
     35 C          -4.8343    6.7572   -4.9603 C.ar    1  LIG1       -0.0599
     36 C          -3.2279    6.6669   -0.8745 C.ar    1  LIG1        0.1837
     37 C          -4.2384    7.3654   -0.1506 C.ar    1  LIG1        0.0342
     38 N          -2.4706    7.5081   -1.5801 N.ar    1  LIG1       -0.0614
     39 C          -4.0193    8.6863   -0.4814 C.ar    1  LIG1        0.1390
     40 C          -5.3348    6.8495    0.6994 C.3     1  LIG1       -0.0330
     41 O          -2.9586    8.7732   -1.3228 O.2     1  LIG1       -0.3578
     42 C          -4.6835    9.9553   -0.1237 C.3     1  LIG1       -0.0034
     43 H         -10.8042    2.1202    4.1228 H       1  LIG1        0.0316
     44 H         -11.9713    0.8179    3.8858 H       1  LIG1        0.0316
     45 H         -12.4089    2.0253    0.2163 H       1  LIG1        0.0316
     46 H         -11.7022    3.4592    0.9757 H       1  LIG1        0.0316
     47 H         -12.3649    3.7928    3.5917 H       1  LIG1        0.0267
     48 H         -13.4875    2.5904    4.2513 H       1  LIG1        0.0267
     49 H         -13.9940    1.7400    2.0206 H       1  LIG1        0.0267
     50 H         -13.9733    3.5002    1.7906 H       1  LIG1        0.0267
     51 H          -7.6304   -0.2159    0.2326 H       1  LIG1        0.0783
     52 H          -7.2687    0.8285    1.5959 H       1  LIG1        0.0783
     53 H          -8.9577   -1.8282    0.9572 H       1  LIG1        0.0387
     54 H          -9.6463   -1.3476   -0.5969 H       1  LIG1        0.0387
     55 H         -11.2637   -2.5426    1.7298 H       1  LIG1        0.0271
     56 H         -10.5202   -3.5017    0.4549 H       1  LIG1        0.0271
     57 H          -8.5608    1.1255   -1.9551 H       1  LIG1        0.0625
     58 H          -6.1220    2.8199    1.1298 H       1  LIG1        0.0622
     59 H         -11.8716   -2.2711   -1.2692 H       1  LIG1        0.0263
     60 H         -12.6755   -1.3682    0.0130 H       1  LIG1        0.0263
     61 H          -5.3251    4.4737   -0.4177 H       1  LIG1        0.0624
     62 H         -12.7465   -4.4058   -0.3385 H       1  LIG1        0.0230
     63 H         -14.0683   -3.2696   -0.6564 H       1  LIG1        0.0230
     64 H         -13.5036   -3.5260    1.0038 H       1  LIG1        0.0230
     65 H          -8.5036    3.6588   -4.1461 H       1  LIG1        0.0610
     66 H          -8.6943    1.9473   -4.0208 H       1  LIG1        0.0610
     67 H          -7.6932    5.5369   -3.6549 H       1  LIG1        0.0624
     68 H          -7.3249    0.5215   -5.0774 H       1  LIG1        0.0557
     69 H          -5.8474    1.0355   -4.2165 H       1  LIG1        0.0557
     70 H          -2.8618    6.2378   -4.3484 H       1  LIG1        0.0637
     71 H          -6.9133    7.1418   -5.3075 H       1  LIG1        0.0618
     72 H          -6.3560    1.3037   -7.2260 H       1  LIG1        0.0252
     73 H          -5.2973    0.0947   -6.4620 H       1  LIG1        0.0252
     74 H          -4.8948    1.8298   -6.3979 H       1  LIG1        0.0252
     75 H          -3.3541    4.7518   -0.0734 H       1  LIG1        0.1753
     76 H          -4.4841    7.4817   -5.6902 H       1  LIG1        0.0618
     77 H          -5.0143    5.9854    1.2870 H       1  LIG1        0.0280
     78 H          -6.1851    6.5595    0.0720 H       1  LIG1        0.0280
     79 H          -5.6952    7.6095    1.3994 H       1  LIG1        0.0280
     80 H          -5.7492    9.7966    0.0718 H       1  LIG1        0.0309
     81 H          -4.5988   10.6880   -0.9316 H       1  LIG1        0.0309
     82 H          -4.2318   10.3794    0.7782 H       1  LIG1        0.0309
@<TRIPOS>BOND
     1     1     5    1
     2     1     4    1
     3     1     2    1
     4     1     3    1
     5     2     6   am
     6     2     7    2
     7     3     8    2
     8     4     9    1
     9     5    10    1
    10     6     8    1
    11     6    11    1
    12     8    12    1
    13     9    10    1
    14    11    13    1
    15    12    14    1
    16    13    15   ar
    17    13    16   ar
    18    14    17    1
    19    15    18   ar
    20    16    19   ar
    21    17    20    1
    22    18    21   ar
    23    18    22    1
    24    19    21   ar
    25    21    23    1
    26    22    24    1
    27    23    26   ar
    28    23    25   ar
    29    24    27    1
    30    25    29   ar
    31    25    28    1
    32    26    30   ar
    33    27    31    1
    34    28    34    2
    35    28    33    2
    36    28    32    1
    37    29    35   ar
    38    30    35   ar
    39    32    36    1
    40    36    37   ar
    41    36    38   ar
    42    37    39   ar
    43    37    40    1
    44    38    41   ar
    45    39    41   ar
    46    39    42    1
    47     4    43    1
    48     4    44    1
    49     5    45    1
    50     5    46    1
    51     9    47    1
    52     9    48    1
    53    10    49    1
    54    10    50    1
    55    11    51    1
    56    11    52    1
    57    12    53    1
    58    12    54    1
    59    14    55    1
    60    14    56    1
    61    15    57    1
    62    16    58    1
    63    17    59    1
    64    17    60    1
    65    19    61    1
    66    20    62    1
    67    20    63    1
    68    20    64    1
    69    22    65    1
    70    22    66    1
    71    26    67    1
    72    27    68    1
    73    27    69    1
    74    29    70    1
    75    30    71    1
    76    31    72    1
    77    31    73    1
    78    31    74    1
    79    32    75    1
    80    35    76    1
    81    40    77    1
    82    40    78    1
    83    40    79    1
    84    42    80    1
    85    42    81    1
    86    42    82    1
@<TRIPOS>MOLECULE
02228316B
 82 86 0 0 0
SMALL
GASTEIGER

@<TRIPOS>ATOM
      1 C          -9.7605   -1.6908   -1.0339 C.3     1  LIG1        0.2491
      2 C          -9.7722   -0.2178   -0.6894 C.2     1  LIG1        0.3556
      3 N          -8.7497   -2.2463   -0.1069 N.2     1  LIG1       -0.0687
      4 C         -11.1145   -2.3753   -0.8301 C.3     1  LIG1        0.0059
      5 C          -9.3522   -1.9367   -2.4905 C.3     1  LIG1        0.0059
      6 N          -8.6767   -0.0033    0.1013 N.am    1  LIG1       -0.1529
      7 O         -10.6087    0.6029   -1.0458 O.2     1  LIG1       -0.2422
      8 C          -8.2291   -1.2118    0.4832 C.cat   1  LIG1        0.2916
      9 C         -11.5964   -2.7116   -2.2368 C.3     1  LIG1       -0.0481
     10 C         -10.3109   -3.0106   -2.9891 C.3     1  LIG1       -0.0481
     11 C          -8.3339    1.3236    0.6074 C.3     1  LIG1        0.1137
     12 C          -7.2415   -1.4233    1.6046 C.3     1  LIG1        0.0509
     13 C          -7.5834    2.2178   -0.3724 C.ar    1  LIG1       -0.0073
     14 C          -5.8159   -0.9727    1.3143 C.3     1  LIG1       -0.0424
     15 C          -7.8933    2.2499   -1.7365 C.ar    1  LIG1       -0.0491
     16 C          -6.6396    3.1455    0.0851 C.ar    1  LIG1       -0.0544
     17 C          -4.8735   -1.5170    2.3927 C.3     1  LIG1       -0.0554
     18 C          -7.2787    3.1460   -2.6401 C.ar    1  LIG1       -0.0138
     19 C          -6.0238    4.0569   -0.7955 C.ar    1  LIG1       -0.0533
     20 C          -3.5071   -0.8549    2.3541 C.3     1  LIG1       -0.0653
     21 C          -6.3092    4.0686   -2.1737 C.ar    1  LIG1       -0.0106
     22 C          -7.7422    3.0710   -4.0854 C.3     1  LIG1        0.0732
     23 C          -5.6725    5.0507   -3.0869 C.ar    1  LIG1        0.0091
     24 O          -6.7167    2.7080   -5.0036 O.3     1  LIG1       -0.3754
     25 C          -4.3111    5.0974   -3.4496 C.ar    1  LIG1        0.1162
     26 C          -6.5167    6.0006   -3.7105 C.ar    1  LIG1       -0.0521
     27 C          -6.2630    1.3596   -4.9040 C.3     1  LIG1        0.0453
     28 S          -3.0232    4.1772   -2.6347 S.O2    1  LIG1        0.0741
     29 C          -3.8710    5.9386   -4.4969 C.ar    1  LIG1       -0.0345
     30 C          -6.0721    6.8514   -4.7269 C.ar    1  LIG1       -0.0611
     31 C          -7.3384    0.3461   -5.2596 C.3     1  LIG1       -0.0416
     32 N          -2.6162    5.1953   -1.3156 N.pl3   1  LIG1       -0.1965
     33 O          -3.5565    2.9586   -2.0635 O.2     1  LIG1       -0.1499
     34 O          -1.8802    4.1031   -3.5195 O.2     1  LIG1       -0.1499
     35 C          -4.7515    6.8000   -5.1424 C.ar    1  LIG1       -0.0599
     36 C          -1.9248    6.3764   -1.6019 C.ar    1  LIG1        0.1837
     37 C          -2.4758    7.6712   -1.7999 C.ar    1  LIG1        0.0342
     38 N          -0.5917    6.4089   -1.5886 N.ar    1  LIG1       -0.0614
     39 C          -1.3684    8.4528   -2.0589 C.ar    1  LIG1        0.1390
     40 C          -3.8826    8.1235   -1.7337 C.3     1  LIG1       -0.0330
     41 O          -0.2442    7.7018   -1.9284 O.2     1  LIG1       -0.3578
     42 C          -1.1647    9.8707   -2.4132 C.3     1  LIG1       -0.0034
     43 H         -11.8446   -1.7503   -0.3054 H       1  LIG1        0.0316
     44 H         -11.0017   -3.3026   -0.2551 H       1  LIG1        0.0316
     45 H          -8.3102   -2.2524   -2.6051 H       1  LIG1        0.0316
     46 H          -9.4914   -1.0297   -3.0909 H       1  LIG1        0.0316
     47 H         -12.1021   -1.8456   -2.6802 H       1  LIG1        0.0267
     48 H         -12.2915   -3.5557   -2.2467 H       1  LIG1        0.0267
     49 H          -9.9367   -4.0058   -2.7213 H       1  LIG1        0.0267
     50 H         -10.4452   -2.9756   -4.0741 H       1  LIG1        0.0267
     51 H          -7.7496    1.2128    1.5250 H       1  LIG1        0.0783
     52 H          -9.2662    1.8364    0.8753 H       1  LIG1        0.0783
     53 H          -7.2408   -2.4959    1.8402 H       1  LIG1        0.0387
     54 H          -7.6224   -0.9119    2.4963 H       1  LIG1        0.0387
     55 H          -5.7638    0.1201    1.2920 H       1  LIG1        0.0271
     56 H          -5.4947   -1.3250    0.3265 H       1  LIG1        0.0271
     57 H          -8.6519    1.5829   -2.1351 H       1  LIG1        0.0625
     58 H          -6.3744    3.1850    1.1397 H       1  LIG1        0.0622
     59 H          -4.7557   -2.5996    2.2614 H       1  LIG1        0.0263
     60 H          -5.3087   -1.3621    3.3879 H       1  LIG1        0.0263
     61 H          -5.3073    4.7639   -0.3831 H       1  LIG1        0.0624
     62 H          -3.0356   -0.9763    1.3748 H       1  LIG1        0.0230
     63 H          -2.8522   -1.3018    3.1088 H       1  LIG1        0.0230
     64 H          -3.5894    0.2144    2.5712 H       1  LIG1        0.0230
     65 H          -8.1360    4.0447   -4.3918 H       1  LIG1        0.0610
     66 H          -8.6013    2.4011   -4.1987 H       1  LIG1        0.0610
     67 H          -7.5680    6.0532   -3.4274 H       1  LIG1        0.0624
     68 H          -5.8469    1.1651   -3.9103 H       1  LIG1        0.0557
     69 H          -5.4406    1.2596   -5.6204 H       1  LIG1        0.0557
     70 H          -2.8260    5.9402   -4.8066 H       1  LIG1        0.0637
     71 H          -6.7691    7.5323   -5.2093 H       1  LIG1        0.0618
     72 H          -8.0988    0.2887   -4.4760 H       1  LIG1        0.0252
     73 H          -6.9063   -0.6526   -5.3725 H       1  LIG1        0.0252
     74 H          -7.8493    0.6234   -6.1863 H       1  LIG1        0.0252
     75 H          -2.0538    4.5946   -0.7079 H       1  LIG1        0.1753
     76 H          -4.3997    7.4371   -5.9487 H       1  LIG1        0.0618
     77 H          -4.5518    7.3283   -1.3957 H       1  LIG1        0.0280
     78 H          -4.2209    8.4790   -2.7106 H       1  LIG1        0.0280
     79 H          -3.9802    8.9538   -1.0263 H       1  LIG1        0.0280
     80 H          -2.1091   10.4234   -2.4078 H       1  LIG1        0.0309
     81 H          -0.7329    9.9539   -3.4163 H       1  LIG1        0.0309
     82 H          -0.4847   10.3549   -1.7050 H       1  LIG1        0.0309
@<TRIPOS>BOND
     1     1     5    1
     2     1     4    1
     3     1     2    1
     4     1     3    1
     5     2     6   am
     6     2     7    2
     7     3     8    2
     8     4     9    1
     9     5    10    1
    10     6     8    1
    11     6    11    1
    12     8    12    1
    13     9    10    1
    14    11    13    1
    15    12    14    1
    16    13    15   ar
    17    13    16   ar
    18    14    17    1
    19    15    18   ar
    20    16    19   ar
    21    17    20    1
    22    18    21   ar
    23    18    22    1
    24    19    21   ar
    25    21    23    1
    26    22    24    1
    27    23    26   ar
    28    23    25   ar
    29    24    27    1
    30    25    29   ar
    31    25    28    1
    32    26    30   ar
    33    27    31    1
    34    28    34    2
    35    28    33    2
    36    28    32    1
    37    29    35   ar
    38    30    35   ar
    39    32    36    1
    40    36    37   ar
    41    36    38   ar
    42    37    39   ar
    43    37    40    1
    44    38    41   ar
    45    39    41   ar
    46    39    42    1
    47     4    43    1
    48     4    44    1
    49     5    45    1
    50     5    46    1
    51     9    47    1
    52     9    48    1
    53    10    49    1
    54    10    50    1
    55    11    51    1
    56    11    52    1
    57    12    53    1
    58    12    54    1
    59    14    55    1
    60    14    56    1
    61    15    57    1
    62    16    58    1
    63    17    59    1
    64    17    60    1
    65    19    61    1
    66    20    62    1
    67    20    63    1
    68    20    64    1
    69    22    65    1
    70    22    66    1
    71    26    67    1
    72    27    68    1
    73    27    69    1
    74    29    70    1
    75    30    71    1
    76    31    72    1
    77    31    73    1
    78    31    74    1
    79    32    75    1
    80    35    76    1
    81    40    77    1
    82    40    78    1
    83    40    79    1
    84    42    80    1
    85    42    81    1
    86    42    82    1
@<TRIPOS>MOLECULE
02228316B
 82 86 0 0 0
SMALL
GASTEIGER

@<TRIPOS>ATOM
      1 C          -5.4624   -1.6096    0.9361 C.3     1  LIG1        0.2491
      2 C          -6.3621   -0.7842    0.0408 C.2     1  LIG1        0.3556
      3 N          -5.9720   -1.3224    2.3003 N.2     1  LIG1       -0.0687
      4 C          -5.5677   -3.1123    0.6421 C.3     1  LIG1        0.0059
      5 C          -3.9844   -1.2366    0.8198 C.3     1  LIG1        0.0059
      6 N          -7.1248   -0.0126    0.8789 N.am    1  LIG1       -0.1529
      7 O          -6.4519   -0.8740   -1.1736 O.2     1  LIG1       -0.2422
      8 C          -6.9096   -0.4370    2.1347 C.cat   1  LIG1        0.2916
      9 C          -4.1871   -3.5148    0.1356 C.3     1  LIG1       -0.0481
     10 C          -3.2501   -2.5721    0.8700 C.3     1  LIG1       -0.0481
     11 C          -8.1822    0.8309    0.3476 C.3     1  LIG1        0.1137
     12 C          -7.7402   -0.0174    3.3304 C.3     1  LIG1        0.0509
     13 C          -7.6580    1.9820   -0.4856 C.ar    1  LIG1       -0.0073
     14 C          -7.7905    1.4635    3.6860 C.3     1  LIG1       -0.0424
     15 C          -7.9425    2.0397   -1.8530 C.ar    1  LIG1       -0.0491
     16 C          -6.8558    2.9846    0.0520 C.ar    1  LIG1       -0.0544
     17 C          -6.4254    2.1015    3.9257 C.3     1  LIG1       -0.0554
     18 C          -7.3832    3.0254   -2.6998 C.ar    1  LIG1       -0.0138
     19 C          -6.3091    3.9799   -0.7706 C.ar    1  LIG1       -0.0533
     20 C          -6.5783    3.5979    4.1656 C.3     1  LIG1       -0.0653
     21 C          -6.4962    3.9924   -2.1645 C.ar    1  LIG1       -0.0106
     22 C          -7.7675    2.9525   -4.1650 C.3     1  LIG1        0.0732
     23 C          -5.8139    5.0091   -3.0074 C.ar    1  LIG1        0.0091
     24 O          -6.7249    2.4958   -5.0172 O.3     1  LIG1       -0.3754
     25 C          -4.4235    5.1143   -3.2402 C.ar    1  LIG1        0.1162
     26 C          -6.6287    5.9580   -3.6674 C.ar    1  LIG1       -0.0521
     27 C          -6.3603    1.1253   -4.8550 C.3     1  LIG1        0.0453
     28 S          -3.1606    4.1707   -2.4048 S.O2    1  LIG1        0.0741
     29 C          -3.9149    6.0447   -4.1777 C.ar    1  LIG1       -0.0345
     30 C          -6.1186    6.8864   -4.5811 C.ar    1  LIG1       -0.0611
     31 C          -7.4863    0.1610   -5.1959 C.3     1  LIG1       -0.0416
     32 N          -2.3532    5.3849   -1.5134 N.pl3   1  LIG1       -0.1965
     33 O          -3.7128    3.2046   -1.4874 O.2     1  LIG1       -0.1499
     34 O          -2.2063    3.7551   -3.4133 O.2     1  LIG1       -0.1499
     35 C          -4.7603    6.9164   -4.8528 C.ar    1  LIG1       -0.0599
     36 C          -2.8167    5.7016   -0.2402 C.ar    1  LIG1        0.1837
     37 C          -3.7865    6.6814    0.1013 C.ar    1  LIG1        0.0342
     38 N          -2.2504    5.1725    0.8446 N.ar    1  LIG1       -0.0614
     39 C          -3.8639    6.5874    1.4760 C.ar    1  LIG1        0.1390
     40 C          -4.5438    7.6054   -0.7713 C.3     1  LIG1       -0.0330
     41 O          -2.9453    5.6903    1.9209 O.2     1  LIG1       -0.3578
     42 C          -4.6872    7.2395    2.5123 C.3     1  LIG1       -0.0034
     43 H          -6.3370   -3.3608   -0.0972 H       1  LIG1        0.0316
     44 H          -5.7986   -3.6767    1.5541 H       1  LIG1        0.0316
     45 H          -3.6413   -0.5687    1.6170 H       1  LIG1        0.0316
     46 H          -3.7772   -0.7442   -0.1380 H       1  LIG1        0.0316
     47 H          -4.1188   -3.3505   -0.9462 H       1  LIG1        0.0267
     48 H          -3.9635   -4.5670    0.3352 H       1  LIG1        0.0267
     49 H          -3.1245   -2.8974    1.9095 H       1  LIG1        0.0267
     50 H          -2.2610   -2.5219    0.4050 H       1  LIG1        0.0267
     51 H          -8.8284    1.2115    1.1381 H       1  LIG1        0.0783
     52 H          -8.8184    0.1876   -0.2724 H       1  LIG1        0.0783
     53 H          -7.3707   -0.5718    4.2038 H       1  LIG1        0.0387
     54 H          -8.7620   -0.3754    3.1523 H       1  LIG1        0.0387
     55 H          -8.3910    1.5669    4.5990 H       1  LIG1        0.0271
     56 H          -8.3237    2.0299    2.9200 H       1  LIG1        0.0271
     57 H          -8.5776    1.2688   -2.2881 H       1  LIG1        0.0625
     58 H          -6.5974    2.9849    1.1055 H       1  LIG1        0.0622
     59 H          -5.7687    1.9431    3.0646 H       1  LIG1        0.0263
     60 H          -5.9419    1.6391    4.7936 H       1  LIG1        0.0263
     61 H          -5.6662    4.7164   -0.3005 H       1  LIG1        0.0624
     62 H          -7.0617    4.0852    3.3115 H       1  LIG1        0.0230
     63 H          -5.6000    4.0655    4.3109 H       1  LIG1        0.0230
     64 H          -7.1880    3.7925    5.0534 H       1  LIG1        0.0230
     65 H          -8.0729    3.9420   -4.5169 H       1  LIG1        0.0610
     66 H          -8.6688    2.3452   -4.3074 H       1  LIG1        0.0610
     67 H          -7.7033    5.9609   -3.4882 H       1  LIG1        0.0624
     68 H          -5.9733    0.9463   -3.8472 H       1  LIG1        0.0557
     69 H          -5.5317    0.9479   -5.5492 H       1  LIG1        0.0557
     70 H          -2.8449    6.0931   -4.3814 H       1  LIG1        0.0637
     71 H          -6.7916    7.5691   -5.0950 H       1  LIG1        0.0618
     72 H          -8.2586    0.1602   -4.4209 H       1  LIG1        0.0252
     73 H          -7.1054   -0.8611   -5.2781 H       1  LIG1        0.0252
     74 H          -7.9718    0.4399   -6.1359 H       1  LIG1        0.0252
     75 H          -1.3718    5.1005   -1.5075 H       1  LIG1        0.1753
     76 H          -4.3574    7.6179   -5.5792 H       1  LIG1        0.0618
     77 H          -4.0526    7.7389   -1.7380 H       1  LIG1        0.0280
     78 H          -4.6192    8.5968   -0.3110 H       1  LIG1        0.0280
     79 H          -5.5595    7.2359   -0.9359 H       1  LIG1        0.0280
     80 H          -5.3902    7.9532    2.0716 H       1  LIG1        0.0309
     81 H          -4.0560    7.7796    3.2241 H       1  LIG1        0.0309
     82 H          -5.2684    6.4930    3.0620 H       1  LIG1        0.0309
@<TRIPOS>BOND
     1     1     5    1
     2     1     4    1
     3     1     2    1
     4     1     3    1
     5     2     6   am
     6     2     7    2
     7     3     8    2
     8     4     9    1
     9     5    10    1
    10     6     8    1
    11     6    11    1
    12     8    12    1
    13     9    10    1
    14    11    13    1
    15    12    14    1
    16    13    15   ar
    17    13    16   ar
    18    14    17    1
    19    15    18   ar
    20    16    19   ar
    21    17    20    1
    22    18    21   ar
    23    18    22    1
    24    19    21   ar
    25    21    23    1
    26    22    24    1
    27    23    26   ar
    28    23    25   ar
    29    24    27    1
    30    25    29   ar
    31    25    28    1
    32    26    30   ar
    33    27    31    1
    34    28    34    2
    35    28    33    2
    36    28    32    1
    37    29    35   ar
    38    30    35   ar
    39    32    36    1
    40    36    37   ar
    41    36    38   ar
    42    37    39   ar
    43    37    40    1
    44    38    41   ar
    45    39    41   ar
    46    39    42    1
    47     4    43    1
    48     4    44    1
    49     5    45    1
    50     5    46    1
    51     9    47    1
    52     9    48    1
    53    10    49    1
    54    10    50    1
    55    11    51    1
    56    11    52    1
    57    12    53    1
    58    12    54    1
    59    14    55    1
    60    14    56    1
    61    15    57    1
    62    16    58    1
    63    17    59    1
    64    17    60    1
    65    19    61    1
    66    20    62    1
    67    20    63    1
    68    20    64    1
    69    22    65    1
    70    22    66    1
    71    26    67    1
    72    27    68    1
    73    27    69    1
    74    29    70    1
    75    30    71    1
    76    31    72    1
    77    31    73    1
    78    31    74    1
    79    32    75    1
    80    35    76    1
    81    40    77    1
    82    40    78    1
    83    40    79    1
    84    42    80    1
    85    42    81    1
    86    42    82    1
@<TRIPOS>MOLECULE
02228316B
 82 86 0 0 0
SMALL
GASTEIGER

@<TRIPOS>ATOM
      1 C          -6.0077   -0.0207    3.5392 C.3     1  LIG1        0.2491
      2 C          -6.4814   -0.1728    2.1056 C.2     1  LIG1        0.3556
      3 N          -6.7823    1.1404    4.0539 N.2     1  LIG1       -0.0687
      4 C          -6.2837   -1.2533    4.4070 C.3     1  LIG1        0.0059
      5 C          -4.5072    0.2621    3.6310 C.3     1  LIG1        0.0059
      6 N          -7.3427    0.8656    1.8916 N.am    1  LIG1       -0.1529
      7 O          -6.1725   -1.0571    1.3246 O.2     1  LIG1       -0.2422
      8 C          -7.4859    1.5495    3.0431 C.cat   1  LIG1        0.2916
      9 C          -4.9101   -1.7419    4.8573 C.3     1  LIG1       -0.0481
     10 C          -4.0603   -0.4831    4.8811 C.3     1  LIG1       -0.0481
     11 C          -8.0045    1.0857    0.6182 C.3     1  LIG1        0.1137
     12 C          -8.4384    2.7207    3.1301 C.3     1  LIG1        0.0509
     13 C          -7.3151    2.0716   -0.3047 C.ar    1  LIG1       -0.0073
     14 C          -8.3524    3.4740    4.4565 C.3     1  LIG1       -0.0424
     15 C          -7.6713    2.0862   -1.6628 C.ar    1  LIG1       -0.0491
     16 C          -6.4002    3.0275    0.1374 C.ar    1  LIG1       -0.0544
     17 C          -9.2756    4.6926    4.5149 C.3     1  LIG1       -0.0554
     18 C          -7.1068    3.0012   -2.5813 C.ar    1  LIG1       -0.0138
     19 C          -5.8622    3.9645   -0.7485 C.ar    1  LIG1       -0.0533
     20 C          -8.8359    5.8252    3.5985 C.3     1  LIG1       -0.0653
     21 C          -6.1658    3.9548   -2.1242 C.ar    1  LIG1       -0.0106
     22 C          -7.6131    2.9536   -4.0063 C.3     1  LIG1        0.0732
     23 C          -5.5542    4.9945   -2.9850 C.ar    1  LIG1        0.0091
     24 O          -8.7634    3.7968   -4.0806 O.3     1  LIG1       -0.3754
     25 C          -4.1694    5.2077   -3.1677 C.ar    1  LIG1        0.1162
     26 C          -6.4290    5.9382   -3.5762 C.ar    1  LIG1       -0.0521
     27 C          -9.3448    3.8547   -5.3779 C.3     1  LIG1        0.0453
     28 S          -2.8840    4.1611   -2.4875 S.O2    1  LIG1        0.0741
     29 C          -3.7185    6.3692   -3.8326 C.ar    1  LIG1       -0.0345
     30 C          -5.9709    7.0315   -4.3136 C.ar    1  LIG1       -0.0611
     31 C         -10.4985    2.8756   -5.4754 C.3     1  LIG1       -0.0416
     32 N          -2.0023    3.5607   -3.8173 N.pl3   1  LIG1       -0.1965
     33 O          -2.0258    5.0081   -1.6875 O.2     1  LIG1       -0.1499
     34 O          -3.4542    2.9618   -1.9141 O.2     1  LIG1       -0.1499
     35 C          -4.6102    7.2573   -4.4280 C.ar    1  LIG1       -0.0599
     36 C          -1.2457    4.4337   -4.5891 C.ar    1  LIG1        0.1837
     37 C          -1.5639    4.8408   -5.9079 C.ar    1  LIG1        0.0342
     38 N          -0.0621    4.8995   -4.1957 N.ar    1  LIG1       -0.0614
     39 C          -0.5276    5.6881   -6.2380 C.ar    1  LIG1        0.1390
     40 C          -2.7274    4.4556   -6.7358 C.3     1  LIG1       -0.0330
     41 O           0.3702    5.7249   -5.2173 O.2     1  LIG1       -0.3578
     42 C          -0.2030    6.5152   -7.4145 C.3     1  LIG1       -0.0034
     43 H          -6.8213   -2.0463    3.8767 H       1  LIG1        0.0316
     44 H          -6.8802   -0.9883    5.2889 H       1  LIG1        0.0316
     45 H          -4.2700    1.3291    3.6974 H       1  LIG1        0.0316
     46 H          -3.9768   -0.1408    2.7591 H       1  LIG1        0.0316
     47 H          -4.5084   -2.4545    4.1272 H       1  LIG1        0.0267
     48 H          -4.9466   -2.2380    5.8316 H       1  LIG1        0.0267
     49 H          -4.2825    0.1099    5.7762 H       1  LIG1        0.0267
     50 H          -2.9891   -0.7037    4.8725 H       1  LIG1        0.0267
     51 H          -9.0198    1.4488    0.8099 H       1  LIG1        0.0783
     52 H          -8.0825    0.1196    0.1051 H       1  LIG1        0.0783
     53 H          -9.4558    2.3380    2.9888 H       1  LIG1        0.0387
     54 H          -8.2272    3.3980    2.2989 H       1  LIG1        0.0387
     55 H          -7.3183    3.7871    4.6471 H       1  LIG1        0.0271
     56 H          -8.6264    2.7925    5.2718 H       1  LIG1        0.0271
     57 H          -8.4168    1.3768   -2.0224 H       1  LIG1        0.0625
     58 H          -6.0816    3.0765    1.1746 H       1  LIG1        0.0622
     59 H          -9.2900    5.0679    5.5450 H       1  LIG1        0.0263
     60 H         -10.3025    4.3988    4.2689 H       1  LIG1        0.0263
     61 H          -5.1706    4.7047   -0.3469 H       1  LIG1        0.0624
     62 H          -7.8031    6.1214    3.8083 H       1  LIG1        0.0230
     63 H          -9.4757    6.7005    3.7500 H       1  LIG1        0.0230
     64 H          -8.9066    5.5428    2.5443 H       1  LIG1        0.0230
     65 H          -7.8861    1.9271   -4.2790 H       1  LIG1        0.0610
     66 H          -6.8429    3.2856   -4.7112 H       1  LIG1        0.0610
     67 H          -7.5053    5.8419   -3.4303 H       1  LIG1        0.0624
     68 H          -8.6015    3.6778   -6.1630 H       1  LIG1        0.0557
     69 H          -9.7300    4.8711   -5.5115 H       1  LIG1        0.0557
     70 H          -2.6574    6.6095   -3.8704 H       1  LIG1        0.0637
     71 H          -6.6828    7.7262   -4.7523 H       1  LIG1        0.0618
     72 H         -10.1523    1.8458   -5.3468 H       1  LIG1        0.0252
     73 H         -10.9978    2.9613   -6.4449 H       1  LIG1        0.0252
     74 H         -11.2326    3.0675   -4.6853 H       1  LIG1        0.0252
     75 H          -1.3954    2.8621   -3.3828 H       1  LIG1        0.1753
     76 H          -4.2412    8.1352   -4.9521 H       1  LIG1        0.0618
     77 H          -3.4258    3.8190   -6.1837 H       1  LIG1        0.0280
     78 H          -2.3948    3.8989   -7.6180 H       1  LIG1        0.0280
     79 H          -3.2737    5.3420   -7.0722 H       1  LIG1        0.0280
     80 H          -0.9792    6.4345   -8.1814 H       1  LIG1        0.0309
     81 H           0.7471    6.2002   -7.8557 H       1  LIG1        0.0309
     82 H          -0.1196    7.5684   -7.1282 H       1  LIG1        0.0309
@<TRIPOS>BOND
     1     1     5    1
     2     1     4    1
     3     1     2    1
     4     1     3    1
     5     2     6   am
     6     2     7    2
     7     3     8    2
     8     4     9    1
     9     5    10    1
    10     6     8    1
    11     6    11    1
    12     8    12    1
    13     9    10    1
    14    11    13    1
    15    12    14    1
    16    13    15   ar
    17    13    16   ar
    18    14    17    1
    19    15    18   ar
    20    16    19   ar
    21    17    20    1
    22    18    21   ar
    23    18    22    1
    24    19    21   ar
    25    21    23    1
    26    22    24    1
    27    23    26   ar
    28    23    25   ar
    29    24    27    1
    30    25    29   ar
    31    25    28    1
    32    26    30   ar
    33    27    31    1
    34    28    34    2
    35    28    33    2
    36    28    32    1
    37    29    35   ar
    38    30    35   ar
    39    32    36    1
    40    36    37   ar
    41    36    38   ar
    42    37    39   ar
    43    37    40    1
    44    38    41   ar
    45    39    41   ar
    46    39    42    1
    47     4    43    1
    48     4    44    1
    49     5    45    1
    50     5    46    1
    51     9    47    1
    52     9    48    1
    53    10    49    1
    54    10    50    1
    55    11    51    1
    56    11    52    1
    57    12    53    1
    58    12    54    1
    59    14    55    1
    60    14    56    1
    61    15    57    1
    62    16    58    1
    63    17    59    1
    64    17    60    1
    65    19    61    1
    66    20    62    1
    67    20    63    1
    68    20    64    1
    69    22    65    1
    70    22    66    1
    71    26    67    1
    72    27    68    1
    73    27    69    1
    74    29    70    1
    75    30    71    1
    76    31    72    1
    77    31    73    1
    78    31    74    1
    79    32    75    1
    80    35    76    1
    81    40    77    1
    82    40    78    1
    83    40    79    1
    84    42    80    1
    85    42    81    1
    86    42    82    1
@<TRIPOS>MOLECULE
02228316B
 82 86 0 0 0
SMALL
GASTEIGER

@<TRIPOS>ATOM
      1 C         -11.2717    1.6415    2.0826 C.3     1  LIG1        0.2491
      2 C          -9.8259    2.0386    1.8838 C.2     1  LIG1        0.3556
      3 N         -11.3184    0.2368    1.6046 N.2     1  LIG1       -0.0687
      4 C         -11.7442    1.7311    3.5346 C.3     1  LIG1        0.0059
      5 C         -12.2247    2.4999    1.2455 C.3     1  LIG1        0.0059
      6 N          -9.2821    1.0541    1.1068 N.am    1  LIG1       -0.1529
      7 O          -9.2684    3.0152    2.3620 O.2     1  LIG1       -0.2422
      8 C         -10.1558    0.0284    1.0679 C.cat   1  LIG1        0.2916
      9 C         -12.8516    2.7807    3.5254 C.3     1  LIG1       -0.0481
     10 C         -13.4490    2.6707    2.1331 C.3     1  LIG1       -0.0481
     11 C          -7.8810    1.0596    0.7347 C.3     1  LIG1        0.1137
     12 C          -9.7847   -1.2941    0.4312 C.3     1  LIG1        0.0509
     13 C          -7.5277    2.1521   -0.2442 C.ar    1  LIG1       -0.0073
     14 C         -10.8151   -2.4111    0.6154 C.3     1  LIG1       -0.0424
     15 C          -7.8293    2.0381   -1.6056 C.ar    1  LIG1       -0.0491
     16 C          -6.8782    3.3048    0.1940 C.ar    1  LIG1       -0.0544
     17 C         -12.0478   -2.2559   -0.2787 C.3     1  LIG1       -0.0554
     18 C          -7.3830    2.9978   -2.5446 C.ar    1  LIG1       -0.0138
     19 C          -6.4338    4.2571   -0.7230 C.ar    1  LIG1       -0.0533
     20 C         -13.0301   -3.3983   -0.0641 C.3     1  LIG1       -0.0653
     21 C          -6.5738    4.0746   -2.1064 C.ar    1  LIG1       -0.0106
     22 C          -7.8374    2.8277   -3.9799 C.3     1  LIG1        0.0732
     23 C          -5.8607    5.0009   -3.0123 C.ar    1  LIG1        0.0091
     24 O          -6.8146    2.4374   -4.8852 O.3     1  LIG1       -0.3754
     25 C          -4.4515    5.1074   -3.1094 C.ar    1  LIG1        0.1162
     26 C          -6.6217    5.8676   -3.8261 C.ar    1  LIG1       -0.0521
     27 C          -6.3931    1.0810   -4.7809 C.3     1  LIG1        0.0453
     28 S          -3.2876    4.1751   -2.1107 S.O2    1  LIG1        0.0741
     29 C          -3.8624    5.9841   -4.0470 C.ar    1  LIG1       -0.0345
     30 C          -6.0302    6.7369   -4.7476 C.ar    1  LIG1       -0.0611
     31 C          -7.4940    0.0852   -5.1139 C.3     1  LIG1       -0.0416
     32 N          -2.9223    5.2985   -0.8813 N.pl3   1  LIG1       -0.1965
     33 O          -3.8833    2.9763   -1.5688 O.2     1  LIG1       -0.1499
     34 O          -2.0495    4.0779   -2.8638 O.2     1  LIG1       -0.1499
     35 C          -4.6494    6.7868   -4.8671 C.ar    1  LIG1       -0.0599
     36 C          -2.9683    4.8560    0.4422 C.ar    1  LIG1        0.1837
     37 C          -1.9479    4.1727    1.1549 C.ar    1  LIG1        0.0342
     38 N          -3.9806    5.1902    1.2434 N.ar    1  LIG1       -0.0614
     39 C          -2.4783    4.0375    2.4226 C.ar    1  LIG1        0.1390
     40 C          -0.6341    3.6886    0.6792 C.3     1  LIG1       -0.0330
     41 O          -3.6929    4.6410    2.4727 O.2     1  LIG1       -0.3578
     42 C          -2.0261    3.4056    3.6761 C.3     1  LIG1       -0.0034
     43 H         -10.9501    2.0138    4.2337 H       1  LIG1        0.0316
     44 H         -12.1534    0.7724    3.8758 H       1  LIG1        0.0316
     45 H         -12.4908    2.0446    0.2854 H       1  LIG1        0.0316
     46 H         -11.7849    3.4827    1.0348 H       1  LIG1        0.0316
     47 H         -12.4223    3.7790    3.6725 H       1  LIG1        0.0267
     48 H         -13.5917    2.6087    4.3119 H       1  LIG1        0.0267
     49 H         -14.0938    1.7865    2.0640 H       1  LIG1        0.0267
     50 H         -14.0397    3.5496    1.8606 H       1  LIG1        0.0267
     51 H          -7.5902    0.0975    0.3011 H       1  LIG1        0.0783
     52 H          -7.2918    1.1745    1.6533 H       1  LIG1        0.0783
     53 H          -8.8478   -1.6277    0.8932 H       1  LIG1        0.0387
     54 H          -9.5832   -1.1266   -0.6329 H       1  LIG1        0.0387
     55 H         -11.1217   -2.4708    1.6671 H       1  LIG1        0.0271
     56 H         -10.3310   -3.3665    0.3755 H       1  LIG1        0.0271
     57 H          -8.4031    1.1795   -1.9499 H       1  LIG1        0.0625
     58 H          -6.6761    3.4645    1.2521 H       1  LIG1        0.0622
     59 H         -11.7437   -2.2350   -1.3313 H       1  LIG1        0.0263
     60 H         -12.5606   -1.3110   -0.0734 H       1  LIG1        0.0263
     61 H          -5.9188    5.1360   -0.3440 H       1  LIG1        0.0624
     62 H         -12.5760   -4.3602   -0.3225 H       1  LIG1        0.0230
     63 H         -13.9156   -3.2608   -0.6926 H       1  LIG1        0.0230
     64 H         -13.3589   -3.4430    0.9794 H       1  LIG1        0.0230
     65 H          -8.2499    3.7757   -4.3383 H       1  LIG1        0.0610
     66 H          -8.6919    2.1440   -4.0426 H       1  LIG1        0.0610
     67 H          -7.7076    5.8687   -3.7485 H       1  LIG1        0.0624
     68 H          -5.9681    0.8877   -3.7911 H       1  LIG1        0.0557
     69 H          -5.5838    0.9572   -5.5081 H       1  LIG1        0.0557
     70 H          -2.7803    6.0488   -4.1467 H       1  LIG1        0.0637
     71 H          -6.6545    7.3687   -5.3744 H       1  LIG1        0.0618
     72 H          -8.2249    0.0169   -4.3019 H       1  LIG1        0.0252
     73 H          -7.0766   -0.9148   -5.2624 H       1  LIG1        0.0252
     74 H          -8.0373    0.3845   -6.0161 H       1  LIG1        0.0252
     75 H          -1.9938    5.6391   -1.1288 H       1  LIG1        0.1753
     76 H          -4.1852    7.4526   -5.5903 H       1  LIG1        0.0618
     77 H          -0.4321    4.0009   -0.3490 H       1  LIG1        0.0280
     78 H          -0.5920    2.5958    0.7177 H       1  LIG1        0.0280
     79 H           0.1683    4.0863    1.3100 H       1  LIG1        0.0280
     80 H          -0.9479    3.2221    3.6610 H       1  LIG1        0.0309
     81 H          -2.5355    2.4479    3.8217 H       1  LIG1        0.0309
     82 H          -2.2476    4.0461    4.5358 H       1  LIG1        0.0309
@<TRIPOS>BOND
     1     1     5    1
     2     1     4    1
     3     1     2    1
     4     1     3    1
     5     2     6   am
     6     2     7    2
     7     3     8    2
     8     4     9    1
     9     5    10    1
    10     6     8    1
    11     6    11    1
    12     8    12    1
    13     9    10    1
    14    11    13    1
    15    12    14    1
    16    13    15   ar
    17    13    16   ar
    18    14    17    1
    19    15    18   ar
    20    16    19   ar
    21    17    20    1
    22    18    21   ar
    23    18    22    1
    24    19    21   ar
    25    21    23    1
    26    22    24    1
    27    23    26   ar
    28    23    25   ar
    29    24    27    1
    30    25    29   ar
    31    25    28    1
    32    26    30   ar
    33    27    31    1
    34    28    34    2
    35    28    33    2
    36    28    32    1
    37    29    35   ar
    38    30    35   ar
    39    32    36    1
    40    36    37   ar
    41    36    38   ar
    42    37    39   ar
    43    37    40    1
    44    38    41   ar
    45    39    41   ar
    46    39    42    1
    47     4    43    1
    48     4    44    1
    49     5    45    1
    50     5    46    1
    51     9    47    1
    52     9    48    1
    53    10    49    1
    54    10    50    1
    55    11    51    1
    56    11    52    1
    57    12    53    1
    58    12    54    1
    59    14    55    1
    60    14    56    1
    61    15    57    1
    62    16    58    1
    63    17    59    1
    64    17    60    1
    65    19    61    1
    66    20    62    1
    67    20    63    1
    68    20    64    1
    69    22    65    1
    70    22    66    1
    71    26    67    1
    72    27    68    1
    73    27    69    1
    74    29    70    1
    75    30    71    1
    76    31    72    1
    77    31    73    1
    78    31    74    1
    79    32    75    1
    80    35    76    1
    81    40    77    1
    82    40    78    1
    83    40    79    1
    84    42    80    1
    85    42    81    1
    86    42    82    1
@<TRIPOS>MOLECULE
02228316B
 82 86 0 0 0
SMALL
GASTEIGER

@<TRIPOS>ATOM
      1 C          -8.9336   -2.0457   -1.0643 C.3     1  LIG1        0.2491
      2 C          -7.9682   -0.8849   -0.9245 C.2     1  LIG1        0.3556
      3 N          -9.9097   -1.8170    0.0314 N.2     1  LIG1       -0.0687
      4 C          -9.6679   -2.0395   -2.4111 C.3     1  LIG1        0.0059
      5 C          -8.2615   -3.4125   -0.9292 C.3     1  LIG1        0.0059
      6 N          -8.5520   -0.0157   -0.0395 N.am    1  LIG1       -0.1529
      7 O          -6.8916   -0.7718   -1.4884 O.2     1  LIG1       -0.2422
      8 C          -9.5974   -0.6557    0.5183 C.cat   1  LIG1        0.2916
      9 C          -9.1318   -3.2587   -3.1513 C.3     1  LIG1       -0.0481
     10 C          -8.8725   -4.2603   -2.0400 C.3     1  LIG1       -0.0481
     11 C          -7.8659    1.1652    0.4607 C.3     1  LIG1        0.1137
     12 C         -10.3926   -0.0954    1.6759 C.3     1  LIG1        0.0509
     13 C          -7.5290    2.2736   -0.5094 C.ar    1  LIG1       -0.0073
     14 C          -9.9071   -0.6023    3.0387 C.3     1  LIG1       -0.0424
     15 C          -7.8498    2.2705   -1.8678 C.ar    1  LIG1       -0.0491
     16 C          -6.8054    3.3623   -0.0140 C.ar    1  LIG1       -0.0544
     17 C          -8.6764    0.1361    3.5694 C.3     1  LIG1       -0.0554
     18 C          -7.3370    3.2481   -2.7549 C.ar    1  LIG1       -0.0138
     19 C          -6.3228    4.3516   -0.8706 C.ar    1  LIG1       -0.0533
     20 C          -8.3605   -0.2408    5.0076 C.3     1  LIG1       -0.0653
     21 C          -6.4858    4.2653   -2.2596 C.ar    1  LIG1       -0.0106
     22 C          -7.7222    3.1227   -4.2157 C.3     1  LIG1        0.0732
     23 C          -5.7690    5.2284   -3.1268 C.ar    1  LIG1        0.0091
     24 O          -6.6801    2.6370   -5.0534 O.3     1  LIG1       -0.3754
     25 C          -4.3682    5.2788   -3.3108 C.ar    1  LIG1        0.1162
     26 C          -6.5380    6.1812   -3.8319 C.ar    1  LIG1       -0.0521
     27 C          -6.3346    1.2653   -4.8688 C.3     1  LIG1        0.0453
     28 S          -3.1867    4.2206   -2.4947 S.O2    1  LIG1        0.0741
     29 C          -3.7965    6.1930   -4.2239 C.ar    1  LIG1       -0.0345
     30 C          -5.9643    7.0842   -4.7326 C.ar    1  LIG1       -0.0611
     31 C          -7.4586    0.3134   -5.2479 C.3     1  LIG1       -0.0416
     32 N          -2.2570    5.3042   -1.5798 N.pl3   1  LIG1       -0.1965
     33 O          -3.7896    3.2767   -1.5818 O.2     1  LIG1       -0.1499
     34 O          -2.2691    3.7406   -3.5123 O.2     1  LIG1       -0.1499
     35 C          -4.5926    7.0804   -4.9374 C.ar    1  LIG1       -0.0599
     36 C          -2.7129    5.6950   -0.3249 C.ar    1  LIG1        0.1837
     37 C          -2.1758    5.2972    0.9266 C.ar    1  LIG1        0.0342
     38 N          -3.6942    6.5877   -0.1798 N.ar    1  LIG1       -0.0614
     39 C          -2.9527    5.9810    1.8408 C.ar    1  LIG1        0.1390
     40 C          -1.0852    4.3416    1.2170 C.3     1  LIG1       -0.0330
     41 O          -3.8538    6.7534    1.1804 O.2     1  LIG1       -0.3578
     42 C          -3.0067    6.0392    3.3133 C.3     1  LIG1       -0.0034
     43 H          -9.5063   -1.1252   -2.9908 H       1  LIG1        0.0316
     44 H         -10.7500   -2.1514   -2.2690 H       1  LIG1        0.0316
     45 H          -8.4191   -3.8768    0.0504 H       1  LIG1        0.0316
     46 H          -7.1787   -3.3420   -1.0871 H       1  LIG1        0.0316
     47 H          -8.1957   -3.0077   -3.6642 H       1  LIG1        0.0267
     48 H          -9.8394   -3.6353   -3.8949 H       1  LIG1        0.0267
     49 H          -9.8161   -4.7033   -1.7002 H       1  LIG1        0.0267
     50 H          -8.2090   -5.0707   -2.3560 H       1  LIG1        0.0267
     51 H          -6.9229    0.8076    0.8946 H       1  LIG1        0.0783
     52 H          -8.4534    1.6172    1.2613 H       1  LIG1        0.0783
     53 H         -11.4272   -0.4349    1.5380 H       1  LIG1        0.0387
     54 H         -10.4248    0.9969    1.6430 H       1  LIG1        0.0387
     55 H          -9.6927   -1.6763    2.9909 H       1  LIG1        0.0271
     56 H         -10.7266   -0.4730    3.7571 H       1  LIG1        0.0271
     57 H          -8.4614    1.4696   -2.2755 H       1  LIG1        0.0625
     58 H          -6.5542    3.4275    1.0435 H       1  LIG1        0.0622
     59 H          -8.8397    1.2186    3.5224 H       1  LIG1        0.0263
     60 H          -7.8052   -0.0996    2.9506 H       1  LIG1        0.0263
     61 H          -5.7401    5.1609   -0.4401 H       1  LIG1        0.0624
     62 H          -9.1917    0.0157    5.6724 H       1  LIG1        0.0230
     63 H          -7.4736    0.3013    5.3527 H       1  LIG1        0.0230
     64 H          -8.1609   -1.3130    5.1001 H       1  LIG1        0.0230
     65 H          -8.0240    4.1007   -4.5989 H       1  LIG1        0.0610
     66 H          -8.6255    2.5117   -4.3337 H       1  LIG1        0.0610
     67 H          -7.6171    6.2138   -3.6910 H       1  LIG1        0.0624
     68 H          -5.9892    1.0875   -3.8459 H       1  LIG1        0.0557
     69 H          -5.4827    1.0739   -5.5298 H       1  LIG1        0.0557
     70 H          -2.7235    6.2058   -4.3865 H       1  LIG1        0.0637
     71 H          -6.5953    7.7790   -5.2786 H       1  LIG1        0.0618
     72 H          -8.2735    0.3496   -4.5197 H       1  LIG1        0.0252
     73 H          -7.0949   -0.7173   -5.2845 H       1  LIG1        0.0252
     74 H          -7.8845    0.5777   -6.2216 H       1  LIG1        0.0252
     75 H          -1.2810    5.0226   -1.6595 H       1  LIG1        0.1753
     76 H          -4.1409    7.7703   -5.6483 H       1  LIG1        0.0618
     77 H          -0.6496    3.9295    0.3012 H       1  LIG1        0.0280
     78 H          -1.4596    3.5054    1.8149 H       1  LIG1        0.0280
     79 H          -0.2853    4.8344    1.7778 H       1  LIG1        0.0280
     80 H          -2.2736    5.3663    3.7668 H       1  LIG1        0.0309
     81 H          -3.9994    5.7465    3.6713 H       1  LIG1        0.0309
     82 H          -2.8005    7.0543    3.6661 H       1  LIG1        0.0309
@<TRIPOS>BOND
     1     1     5    1
     2     1     4    1
     3     1     2    1
     4     1     3    1
     5     2     6   am
     6     2     7    2
     7     3     8    2
     8     4     9    1
     9     5    10    1
    10     6     8    1
    11     6    11    1
    12     8    12    1
    13     9    10    1
    14    11    13    1
    15    12    14    1
    16    13    15   ar
    17    13    16   ar
    18    14    17    1
    19    15    18   ar
    20    16    19   ar
    21    17    20    1
    22    18    21   ar
    23    18    22    1
    24    19    21   ar
    25    21    23    1
    26    22    24    1
    27    23    26   ar
    28    23    25   ar
    29    24    27    1
    30    25    29   ar
    31    25    28    1
    32    26    30   ar
    33    27    31    1
    34    28    34    2
    35    28    33    2
    36    28    32    1
    37    29    35   ar
    38    30    35   ar
    39    32    36    1
    40    36    37   ar
    41    36    38   ar
    42    37    39   ar
    43    37    40    1
    44    38    41   ar
    45    39    41   ar
    46    39    42    1
    47     4    43    1
    48     4    44    1
    49     5    45    1
    50     5    46    1
    51     9    47    1
    52     9    48    1
    53    10    49    1
    54    10    50    1
    55    11    51    1
    56    11    52    1
    57    12    53    1
    58    12    54    1
    59    14    55    1
    60    14    56    1
    61    15    57    1
    62    16    58    1
    63    17    59    1
    64    17    60    1
    65    19    61    1
    66    20    62    1
    67    20    63    1
    68    20    64    1
    69    22    65    1
    70    22    66    1
    71    26    67    1
    72    27    68    1
    73    27    69    1
    74    29    70    1
    75    30    71    1
    76    31    72    1
    77    31    73    1
    78    31    74    1
    79    32    75    1
    80    35    76    1
    81    40    77    1
    82    40    78    1
    83    40    79    1
    84    42    80    1
    85    42    81    1
    86    42    82    1
@<TRIPOS>MOLECULE
02228316B
 82 86 0 0 0
SMALL
GASTEIGER

@<TRIPOS>ATOM
      1 C          -6.7368   -2.4363   -0.3221 C.3     1  LIG1        0.2491
      2 C          -7.7099   -1.2891   -0.4978 C.2     1  LIG1        0.3556
      3 N          -5.9796   -2.0765    0.8990 N.2     1  LIG1       -0.0687
      4 C          -7.4340   -3.7876   -0.1344 C.3     1  LIG1        0.0059
      5 C          -5.7803   -2.5873   -1.5068 C.3     1  LIG1        0.0059
      6 N          -7.3939   -0.3814    0.4770 N.am    1  LIG1       -0.1529
      7 O          -8.6068   -1.2139   -1.3200 O.2     1  LIG1       -0.2422
      8 C          -6.4389   -0.9183    1.2591 C.cat   1  LIG1        0.2916
      9 C          -6.9993   -4.6278   -1.3307 C.3     1  LIG1       -0.0481
     10 C          -5.6181   -4.0925   -1.6679 C.3     1  LIG1       -0.0481
     11 C          -8.0935    0.8863    0.6003 C.3     1  LIG1        0.1137
     12 C          -5.9011   -0.1994    2.4762 C.3     1  LIG1        0.0509
     13 C          -7.5246    1.9519   -0.3085 C.ar    1  LIG1       -0.0073
     14 C          -5.3510   -1.1266    3.5667 C.3     1  LIG1       -0.0424
     15 C          -7.8407    1.9633   -1.6721 C.ar    1  LIG1       -0.0491
     16 C          -6.6853    2.9498    0.1730 C.ar    1  LIG1       -0.0544
     17 C          -6.4238   -1.7320    4.4809 C.3     1  LIG1       -0.0554
     18 C          -7.3087    2.9188   -2.5724 C.ar    1  LIG1       -0.0138
     19 C          -6.1743    3.9200   -0.6976 C.ar    1  LIG1       -0.0533
     20 C          -7.3100   -2.7730    3.8160 C.3     1  LIG1       -0.0653
     21 C          -6.4211    3.9098   -2.0862 C.ar    1  LIG1       -0.0106
     22 C          -7.8748    2.8648   -3.9811 C.3     1  LIG1        0.0732
     23 C          -5.8095    4.9556   -2.9486 C.ar    1  LIG1        0.0091
     24 O          -6.9319    3.1312   -5.0140 O.3     1  LIG1       -0.3754
     25 C          -4.4274    5.1298   -3.1996 C.ar    1  LIG1        0.1162
     26 C          -6.6829    5.8590   -3.5932 C.ar    1  LIG1       -0.0521
     27 C          -7.5965    3.2368   -6.2744 C.3     1  LIG1        0.0453
     28 S          -3.1090    4.2175   -2.4136 S.O2    1  LIG1        0.0741
     29 C          -3.9806    6.1004   -4.1270 C.ar    1  LIG1       -0.0345
     30 C          -6.2322    6.8282   -4.4969 C.ar    1  LIG1       -0.0611
     31 C          -6.5808    3.5403   -7.3546 C.3     1  LIG1       -0.0416
     32 N          -2.3228    5.4389   -1.5122 N.pl3   1  LIG1       -0.1965
     33 O          -3.5947    3.2072   -1.5079 O.2     1  LIG1       -0.1499
     34 O          -2.1634    3.8616   -3.4568 O.2     1  LIG1       -0.1499
     35 C          -4.8791    6.9387   -4.7771 C.ar    1  LIG1       -0.0599
     36 C          -2.7861    5.7309   -0.2319 C.ar    1  LIG1        0.1837
     37 C          -3.7654    6.6956    0.1245 C.ar    1  LIG1        0.0342
     38 N          -2.2110    5.1931    0.8440 N.ar    1  LIG1       -0.0614
     39 C          -3.8409    6.5796    1.4978 C.ar    1  LIG1        0.1390
     40 C          -4.5373    7.6192   -0.7352 C.3     1  LIG1       -0.0330
     41 O          -2.9113    5.6878    1.9291 O.2     1  LIG1       -0.3578
     42 C          -4.6744    7.2024    2.5442 C.3     1  LIG1       -0.0034
     43 H          -8.5260   -3.7114   -0.0918 H       1  LIG1        0.0316
     44 H          -7.1049   -4.2760    0.7909 H       1  LIG1        0.0316
     45 H          -4.8131   -2.0994   -1.3477 H       1  LIG1        0.0316
     46 H          -6.2163   -2.1667   -2.4220 H       1  LIG1        0.0316
     47 H          -7.6826   -4.4643   -2.1724 H       1  LIG1        0.0267
     48 H          -6.9884   -5.6975   -1.1033 H       1  LIG1        0.0267
     49 H          -4.8780   -4.4733   -0.9539 H       1  LIG1        0.0267
     50 H          -5.2971   -4.3704   -2.6760 H       1  LIG1        0.0267
     51 H          -8.0766    1.2336    1.6370 H       1  LIG1        0.0783
     52 H          -9.1486    0.7330    0.3457 H       1  LIG1        0.0783
     53 H          -6.6520    0.4630    2.9113 H       1  LIG1        0.0387
     54 H          -5.0830    0.4352    2.1144 H       1  LIG1        0.0387
     55 H          -4.6860   -0.5284    4.2023 H       1  LIG1        0.0271
     56 H          -4.7311   -1.9237    3.1408 H       1  LIG1        0.0271
     57 H          -8.5309    1.2083   -2.0520 H       1  LIG1        0.0625
     58 H          -6.4052    2.9884    1.2234 H       1  LIG1        0.0622
     59 H          -7.0508   -0.9361    4.8998 H       1  LIG1        0.0263
     60 H          -5.9179   -2.2096    5.3292 H       1  LIG1        0.0263
     61 H          -5.5306    4.6785   -0.2679 H       1  LIG1        0.0624
     62 H          -7.9556   -2.3263    3.0551 H       1  LIG1        0.0230
     63 H          -7.9616   -3.2412    4.5609 H       1  LIG1        0.0230
     64 H          -6.7111   -3.5630    3.3524 H       1  LIG1        0.0230
     65 H          -8.7008    3.5863   -4.0280 H       1  LIG1        0.0610
     66 H          -8.2937    1.8691   -4.1730 H       1  LIG1        0.0610
     67 H          -7.7541    5.7937   -3.4125 H       1  LIG1        0.0624
     68 H          -8.3375    4.0440   -6.2348 H       1  LIG1        0.0557
     69 H          -8.1104    2.2956   -6.5007 H       1  LIG1        0.0557
     70 H          -2.9171    6.2048   -4.3436 H       1  LIG1        0.0637
     71 H          -6.9450    7.4800   -4.9958 H       1  LIG1        0.0618
     72 H          -6.0532    4.4742   -7.1370 H       1  LIG1        0.0252
     73 H          -7.0709    3.6313   -8.3287 H       1  LIG1        0.0252
     74 H          -5.8282    2.7481   -7.4103 H       1  LIG1        0.0252
     75 H          -1.3366    5.1711   -1.5130 H       1  LIG1        0.1753
     76 H          -4.5206    7.6724   -5.4941 H       1  LIG1        0.0618
     77 H          -4.0394    7.7847   -1.6935 H       1  LIG1        0.0280
     78 H          -4.6424    8.5979   -0.2551 H       1  LIG1        0.0280
     79 H          -5.5416    7.2272   -0.9188 H       1  LIG1        0.0280
     80 H          -5.4016    7.8973    2.1125 H       1  LIG1        0.0309
     81 H          -4.0536    7.7571    3.2538 H       1  LIG1        0.0309
     82 H          -5.2296    6.4365    3.0944 H       1  LIG1        0.0309
@<TRIPOS>BOND
     1     1     5    1
     2     1     4    1
     3     1     2    1
     4     1     3    1
     5     2     6   am
     6     2     7    2
     7     3     8    2
     8     4     9    1
     9     5    10    1
    10     6     8    1
    11     6    11    1
    12     8    12    1
    13     9    10    1
    14    11    13    1
    15    12    14    1
    16    13    15   ar
    17    13    16   ar
    18    14    17    1
    19    15    18   ar
    20    16    19   ar
    21    17    20    1
    22    18    21   ar
    23    18    22    1
    24    19    21   ar
    25    21    23    1
    26    22    24    1
    27    23    26   ar
    28    23    25   ar
    29    24    27    1
    30    25    29   ar
    31    25    28    1
    32    26    30   ar
    33    27    31    1
    34    28    34    2
    35    28    33    2
    36    28    32    1
    37    29    35   ar
    38    30    35   ar
    39    32    36    1
    40    36    37   ar
    41    36    38   ar
    42    37    39   ar
    43    37    40    1
    44    38    41   ar
    45    39    41   ar
    46    39    42    1
    47     4    43    1
    48     4    44    1
    49     5    45    1
    50     5    46    1
    51     9    47    1
    52     9    48    1
    53    10    49    1
    54    10    50    1
    55    11    51    1
    56    11    52    1
    57    12    53    1
    58    12    54    1
    59    14    55    1
    60    14    56    1
    61    15    57    1
    62    16    58    1
    63    17    59    1
    64    17    60    1
    65    19    61    1
    66    20    62    1
    67    20    63    1
    68    20    64    1
    69    22    65    1
    70    22    66    1
    71    26    67    1
    72    27    68    1
    73    27    69    1
    74    29    70    1
    75    30    71    1
    76    31    72    1
    77    31    73    1
    78    31    74    1
    79    32    75    1
    80    35    76    1
    81    40    77    1
    82    40    78    1
    83    40    79    1
    84    42    80    1
    85    42    81    1
    86    42    82    1
@<TRIPOS>MOLECULE
02228316B
 82 86 0 0 0
SMALL
GASTEIGER

@<TRIPOS>ATOM
      1 C          -6.9518   -2.5244   -0.1177 C.3     1  LIG1        0.2491
      2 C          -7.9065   -1.3470   -0.1016 C.2     1  LIG1        0.3556
      3 N          -5.7408   -2.0097    0.5737 N.2     1  LIG1       -0.0687
      4 C          -7.4886   -3.7546    0.6188 C.3     1  LIG1        0.0059
      5 C          -6.5866   -2.9745   -1.5313 C.3     1  LIG1        0.0059
      6 N          -7.2303   -0.3270    0.5017 N.am    1  LIG1       -0.1529
      7 O          -9.0473   -1.3279   -0.5363 O.2     1  LIG1       -0.2422
      8 C          -6.0059   -0.7689    0.8495 C.cat   1  LIG1        0.2916
      9 C          -7.4913   -4.8753   -0.4187 C.3     1  LIG1       -0.0481
     10 C          -6.4017   -4.4796   -1.4004 C.3     1  LIG1       -0.0481
     11 C          -7.8393    0.9666    0.7542 C.3     1  LIG1        0.1137
     12 C          -5.0050    0.1510    1.5123 C.3     1  LIG1        0.0509
     13 C          -7.3931    2.0268   -0.2208 C.ar    1  LIG1       -0.0073
     14 C          -3.7392   -0.5350    2.0304 C.3     1  LIG1       -0.0424
     15 C          -7.7039    1.9349   -1.5827 C.ar    1  LIG1       -0.0491
     16 C          -6.6823    3.1384    0.2191 C.ar    1  LIG1       -0.0544
     17 C          -2.7508   -0.9000    0.9190 C.3     1  LIG1       -0.0554
     18 C          -7.2547    2.8931   -2.5253 C.ar    1  LIG1       -0.0138
     19 C          -6.2404    4.0942   -0.6961 C.ar    1  LIG1       -0.0533
     20 C          -1.4822   -1.5159    1.4908 C.3     1  LIG1       -0.0653
     21 C          -6.4489    3.9703   -2.0830 C.ar    1  LIG1       -0.0106
     22 C          -7.8203    2.7545   -3.9279 C.3     1  LIG1        0.0732
     23 C          -5.8511    4.9828   -2.9833 C.ar    1  LIG1        0.0091
     24 O          -6.9053    3.0621   -4.9744 O.3     1  LIG1       -0.3754
     25 C          -4.4677    5.1595   -3.2212 C.ar    1  LIG1        0.1162
     26 C          -6.7270    5.8583   -3.6658 C.ar    1  LIG1       -0.0521
     27 C          -7.5951    3.1735   -6.2207 C.3     1  LIG1        0.0453
     28 S          -3.1622    4.2450   -2.4101 S.O2    1  LIG1        0.0741
     29 C          -4.0128    6.1143   -4.1580 C.ar    1  LIG1       -0.0345
     30 C          -6.2676    6.8108   -4.5806 C.ar    1  LIG1       -0.0611
     31 C          -6.6031    3.4976   -7.3174 C.3     1  LIG1       -0.0416
     32 N          -2.3635    5.4727   -1.5257 N.pl3   1  LIG1       -0.1965
     33 O          -3.6665    3.2574   -1.4861 O.2     1  LIG1       -0.1499
     34 O          -2.2173    3.8613   -3.4397 O.2     1  LIG1       -0.1499
     35 C          -4.9092    6.9309   -4.8369 C.ar    1  LIG1       -0.0599
     36 C          -2.8064    5.7653   -0.2397 C.ar    1  LIG1        0.1837
     37 C          -3.7656    6.7481    0.1261 C.ar    1  LIG1        0.0342
     38 N          -2.2395    5.2089    0.8281 N.ar    1  LIG1       -0.0614
     39 C          -3.8375    6.6224    1.4994 C.ar    1  LIG1        0.1390
     40 C          -4.5211    7.6885   -0.7288 C.3     1  LIG1       -0.0330
     41 O          -2.9226    5.7083    1.9185 O.2     1  LIG1       -0.3578
     42 C          -4.6565    7.2506    2.5539 C.3     1  LIG1       -0.0034
     43 H          -8.4945   -3.6094    1.0271 H       1  LIG1        0.0316
     44 H          -6.8353   -4.0342    1.4547 H       1  LIG1        0.0316
     45 H          -5.6825   -2.4942   -1.9203 H       1  LIG1        0.0316
     46 H          -7.4024   -2.7652   -2.2339 H       1  LIG1        0.0316
     47 H          -8.4616   -4.9091   -0.9285 H       1  LIG1        0.0267
     48 H          -7.3108   -5.8561    0.0310 H       1  LIG1        0.0267
     49 H          -5.4130   -4.7069   -0.9843 H       1  LIG1        0.0267
     50 H          -6.4974   -4.9951   -2.3602 H       1  LIG1        0.0267
     51 H          -7.5938    1.2648    1.7795 H       1  LIG1        0.0783
     52 H          -8.9318    0.8807    0.7035 H       1  LIG1        0.0783
     53 H          -5.5039    0.6303    2.3618 H       1  LIG1        0.0387
     54 H          -4.7374    0.9407    0.8022 H       1  LIG1        0.0387
     55 H          -4.0022   -1.4304    2.6062 H       1  LIG1        0.0271
     56 H          -3.2402    0.1523    2.7252 H       1  LIG1        0.0271
     57 H          -8.3189    1.1001   -1.9219 H       1  LIG1        0.0625
     58 H          -6.4311    3.2647    1.2693 H       1  LIG1        0.0622
     59 H          -2.4876   -0.0048    0.3440 H       1  LIG1        0.0263
     60 H          -3.2001   -1.6111    0.2185 H       1  LIG1        0.0263
     61 H          -5.6743    4.9301   -0.3061 H       1  LIG1        0.0624
     62 H          -0.9621   -0.8068    2.1423 H       1  LIG1        0.0230
     63 H          -0.8000   -1.7981    0.6830 H       1  LIG1        0.0230
     64 H          -1.7096   -2.4148    2.0729 H       1  LIG1        0.0230
     65 H          -8.6966    3.4140   -3.9853 H       1  LIG1        0.0610
     66 H          -8.1672    1.7267   -4.0905 H       1  LIG1        0.0610
     67 H          -7.8007    5.7801   -3.5012 H       1  LIG1        0.0624
     68 H          -8.3414    3.9747   -6.1588 H       1  LIG1        0.0557
     69 H          -8.1059    2.2308   -6.4467 H       1  LIG1        0.0557
     70 H          -2.9472    6.2197   -4.3611 H       1  LIG1        0.0637
     71 H          -6.9770    7.4446   -5.1069 H       1  LIG1        0.0618
     72 H          -6.0762    4.4313   -7.0987 H       1  LIG1        0.0252
     73 H          -7.1130    3.5981   -8.2804 H       1  LIG1        0.0252
     74 H          -5.8472    2.7103   -7.3987 H       1  LIG1        0.0252
     75 H          -1.3785    5.2007   -1.5399 H       1  LIG1        0.1753
     76 H          -4.5461    7.6546   -5.5619 H       1  LIG1        0.0618
     77 H          -4.0282    7.8375   -1.6930 H       1  LIG1        0.0280
     78 H          -4.5972    8.6702   -0.2499 H       1  LIG1        0.0280
     79 H          -5.5360    7.3220   -0.9056 H       1  LIG1        0.0280
     80 H          -5.3811    7.9529    2.1302 H       1  LIG1        0.0309
     81 H          -4.0253    7.7967    3.2609 H       1  LIG1        0.0309
     82 H          -5.2146    6.4880    3.1069 H       1  LIG1        0.0309
@<TRIPOS>BOND
     1     1     5    1
     2     1     4    1
     3     1     2    1
     4     1     3    1
     5     2     6   am
     6     2     7    2
     7     3     8    2
     8     4     9    1
     9     5    10    1
    10     6     8    1
    11     6    11    1
    12     8    12    1
    13     9    10    1
    14    11    13    1
    15    12    14    1
    16    13    15   ar
    17    13    16   ar
    18    14    17    1
    19    15    18   ar
    20    16    19   ar
    21    17    20    1
    22    18    21   ar
    23    18    22    1
    24    19    21   ar
    25    21    23    1
    26    22    24    1
    27    23    26   ar
    28    23    25   ar
    29    24    27    1
    30    25    29   ar
    31    25    28    1
    32    26    30   ar
    33    27    31    1
    34    28    34    2
    35    28    33    2
    36    28    32    1
    37    29    35   ar
    38    30    35   ar
    39    32    36    1
    40    36    37   ar
    41    36    38   ar
    42    37    39   ar
    43    37    40    1
    44    38    41   ar
    45    39    41   ar
    46    39    42    1
    47     4    43    1
    48     4    44    1
    49     5    45    1
    50     5    46    1
    51     9    47    1
    52     9    48    1
    53    10    49    1
    54    10    50    1
    55    11    51    1
    56    11    52    1
    57    12    53    1
    58    12    54    1
    59    14    55    1
    60    14    56    1
    61    15    57    1
    62    16    58    1
    63    17    59    1
    64    17    60    1
    65    19    61    1
    66    20    62    1
    67    20    63    1
    68    20    64    1
    69    22    65    1
    70    22    66    1
    71    26    67    1
    72    27    68    1
    73    27    69    1
    74    29    70    1
    75    30    71    1
    76    31    72    1
    77    31    73    1
    78    31    74    1
    79    32    75    1
    80    35    76    1
    81    40    77    1
    82    40    78    1
    83    40    79    1
    84    42    80    1
    85    42    81    1
    86    42    82    1
@<TRIPOS>MOLECULE
02228316B
 82 86 0 0 0
SMALL
GASTEIGER

@<TRIPOS>ATOM
      1 C         -10.0085    2.0217    3.3490 C.3     1  LIG1        0.2491
      2 C          -8.6170    1.8752    2.7723 C.2     1  LIG1        0.3556
      3 N         -10.8796    1.3506    2.3541 N.2     1  LIG1       -0.0687
      4 C         -10.1562    1.3480    4.7175 C.3     1  LIG1        0.0059
      5 C         -10.4271    3.4827    3.5203 C.3     1  LIG1        0.0059
      6 N          -8.7750    1.2489    1.5685 N.am    1  LIG1       -0.1529
      7 O          -7.5738    2.2245    3.3028 O.2     1  LIG1       -0.2422
      8 C         -10.0750    0.9349    1.4231 C.cat   1  LIG1        0.2916
      9 C         -10.4377    2.4890    5.6888 C.3     1  LIG1       -0.0481
     10 C         -11.1826    3.5069    4.8426 C.3     1  LIG1       -0.0481
     11 C          -7.6439    0.9390    0.7105 C.3     1  LIG1        0.1137
     12 C         -10.5873    0.1763    0.2191 C.3     1  LIG1        0.0509
     13 C          -7.2818    2.0665   -0.2307 C.ar    1  LIG1       -0.0073
     14 C         -11.8946   -0.5893    0.4586 C.3     1  LIG1       -0.0424
     15 C          -7.5566    1.9826   -1.6009 C.ar    1  LIG1       -0.0491
     16 C          -6.6246    3.2041    0.2421 C.ar    1  LIG1       -0.0544
     17 C         -11.7129   -1.9583    1.1272 C.3     1  LIG1       -0.0554
     18 C          -7.1153    2.9720   -2.5092 C.ar    1  LIG1       -0.0138
     19 C          -6.2021    4.2041   -0.6378 C.ar    1  LIG1       -0.0533
     20 C         -11.2760   -1.9005    2.5819 C.3     1  LIG1       -0.0653
     21 C          -6.3707    4.0846   -2.0258 C.ar    1  LIG1       -0.0106
     22 C          -7.4663    2.8506   -3.9852 C.3     1  LIG1        0.0732
     23 C          -5.7850    5.1027   -2.9355 C.ar    1  LIG1        0.0091
     24 O          -8.1588    1.6353   -4.2904 O.3     1  LIG1       -0.3754
     25 C          -4.3991    5.2599   -3.1878 C.ar    1  LIG1        0.1162
     26 C          -6.6656    5.9338   -3.6602 C.ar    1  LIG1       -0.0521
     27 C          -9.0729    1.7588   -5.3797 C.3     1  LIG1        0.0453
     28 S          -3.1771    4.4313   -2.1765 S.O2    1  LIG1        0.0741
     29 C          -3.9500    6.1146   -4.2116 C.ar    1  LIG1       -0.0345
     30 C          -6.2110    6.8033   -4.6547 C.ar    1  LIG1       -0.0611
     31 C          -8.3740    2.0333   -6.7001 C.3     1  LIG1       -0.0416
     32 N          -1.6789    5.0180   -2.7330 N.pl3   1  LIG1       -0.1965
     33 O          -3.3503    4.8846   -0.8128 O.2     1  LIG1       -0.1499
     34 O          -3.1983    3.0339   -2.5476 O.2     1  LIG1       -0.1499
     35 C          -4.8560    6.8750   -4.9470 C.ar    1  LIG1       -0.0599
     36 C          -0.8675    5.7222   -1.8397 C.ar    1  LIG1        0.1837
     37 C          -1.0864    6.9999   -1.2592 C.ar    1  LIG1        0.0342
     38 N           0.3248    5.2261   -1.5038 N.ar    1  LIG1       -0.0614
     39 C           0.0174    7.1752   -0.4494 C.ar    1  LIG1        0.1390
     40 C          -2.2104    7.9431   -1.4405 C.3     1  LIG1       -0.0330
     41 O           0.8608    6.1203   -0.5963 O.2     1  LIG1       -0.3578
     42 C           0.4461    8.2241    0.4966 C.3     1  LIG1       -0.0034
     43 H          -9.2671    0.7870    5.0246 H       1  LIG1        0.0316
     44 H         -11.0019    0.6496    4.7241 H       1  LIG1        0.0316
     45 H         -11.0518    3.8536    2.7008 H       1  LIG1        0.0316
     46 H          -9.5506    4.1387    3.5902 H       1  LIG1        0.0316
     47 H          -9.4947    2.9158    6.0509 H       1  LIG1        0.0267
     48 H         -11.0187    2.1607    6.5553 H       1  LIG1        0.0267
     49 H         -12.2207    3.1879    4.6913 H       1  LIG1        0.0267
     50 H         -11.1917    4.5013    5.2974 H       1  LIG1        0.0267
     51 H          -7.8462    0.0269    0.1417 H       1  LIG1        0.0783
     52 H          -6.7721    0.7175    1.3391 H       1  LIG1        0.0783
     53 H          -9.8305   -0.5104   -0.1667 H       1  LIG1        0.0387
     54 H         -10.7644    0.9298   -0.5586 H       1  LIG1        0.0387
     55 H         -12.3560   -0.7690   -0.5210 H       1  LIG1        0.0271
     56 H         -12.6134    0.0104    1.0287 H       1  LIG1        0.0271
     57 H          -8.0987    1.1171   -1.9800 H       1  LIG1        0.0625
     58 H          -6.3984    3.3140    1.3017 H       1  LIG1        0.0622
     59 H         -10.9957   -2.5599    0.5568 H       1  LIG1        0.0263
     60 H         -12.6715   -2.4898    1.0817 H       1  LIG1        0.0263
     61 H          -5.6966    5.0709   -0.2150 H       1  LIG1        0.0624
     62 H         -10.2606   -1.5080    2.6826 H       1  LIG1        0.0230
     63 H         -11.2807   -2.9064    3.0148 H       1  LIG1        0.0230
     64 H         -11.9559   -1.2796    3.1736 H       1  LIG1        0.0230
     65 H          -6.5525    2.8762   -4.5877 H       1  LIG1        0.0610
     66 H          -8.1104    3.6976   -4.2448 H       1  LIG1        0.0610
     67 H          -7.7363    5.8899   -3.4619 H       1  LIG1        0.0624
     68 H          -9.8164    2.5334   -5.1585 H       1  LIG1        0.0557
     69 H          -9.6117    0.8083   -5.4515 H       1  LIG1        0.0557
     70 H          -2.8938    6.2153   -4.4471 H       1  LIG1        0.0637
     71 H          -6.9209    7.4118   -5.2099 H       1  LIG1        0.0618
     72 H          -7.8970    3.0184   -6.6990 H       1  LIG1        0.0252
     73 H          -9.0898    2.0044   -7.5271 H       1  LIG1        0.0252
     74 H          -7.5887    1.2935   -6.8831 H       1  LIG1        0.0252
     75 H          -1.1757    4.2088   -3.1031 H       1  LIG1        0.1753
     76 H          -4.5005    7.5365   -5.7339 H       1  LIG1        0.0618
     77 H          -2.7325    7.7695   -2.3823 H       1  LIG1        0.0280
     78 H          -1.8473    8.9764   -1.4687 H       1  LIG1        0.0280
     79 H          -2.9290    7.8543   -0.6209 H       1  LIG1        0.0280
     80 H          -0.1458    9.1364    0.3742 H       1  LIG1        0.0309
     81 H           1.4979    8.4824    0.3417 H       1  LIG1        0.0309
     82 H           0.3235    7.8780    1.5276 H       1  LIG1        0.0309
@<TRIPOS>BOND
     1     1     5    1
     2     1     4    1
     3     1     2    1
     4     1     3    1
     5     2     6   am
     6     2     7    2
     7     3     8    2
     8     4     9    1
     9     5    10    1
    10     6     8    1
    11     6    11    1
    12     8    12    1
    13     9    10    1
    14    11    13    1
    15    12    14    1
    16    13    15   ar
    17    13    16   ar
    18    14    17    1
    19    15    18   ar
    20    16    19   ar
    21    17    20    1
    22    18    21   ar
    23    18    22    1
    24    19    21   ar
    25    21    23    1
    26    22    24    1
    27    23    26   ar
    28    23    25   ar
    29    24    27    1
    30    25    29   ar
    31    25    28    1
    32    26    30   ar
    33    27    31    1
    34    28    34    2
    35    28    33    2
    36    28    32    1
    37    29    35   ar
    38    30    35   ar
    39    32    36    1
    40    36    37   ar
    41    36    38   ar
    42    37    39   ar
    43    37    40    1
    44    38    41   ar
    45    39    41   ar
    46    39    42    1
    47     4    43    1
    48     4    44    1
    49     5    45    1
    50     5    46    1
    51     9    47    1
    52     9    48    1
    53    10    49    1
    54    10    50    1
    55    11    51    1
    56    11    52    1
    57    12    53    1
    58    12    54    1
    59    14    55    1
    60    14    56    1
    61    15    57    1
    62    16    58    1
    63    17    59    1
    64    17    60    1
    65    19    61    1
    66    20    62    1
    67    20    63    1
    68    20    64    1
    69    22    65    1
    70    22    66    1
    71    26    67    1
    72    27    68    1
    73    27    69    1
    74    29    70    1
    75    30    71    1
    76    31    72    1
    77    31    73    1
    78    31    74    1
    79    32    75    1
    80    35    76    1
    81    40    77    1
    82    40    78    1
    83    40    79    1
    84    42    80    1
    85    42    81    1
    86    42    82    1
@<TRIPOS>MOLECULE
02228316B
 82 86 0 0 0
SMALL
GASTEIGER

@<TRIPOS>ATOM
      1 C         -11.2183    1.6927    2.0677 C.3     1  LIG1        0.2491
      2 C          -9.7697    2.0970    1.8746 C.2     1  LIG1        0.3556
      3 N         -11.2548    0.2883    1.5912 N.2     1  LIG1       -0.0687
      4 C         -11.6949    1.7771    3.5186 C.3     1  LIG1        0.0059
      5 C         -12.1749    2.5438    1.2302 C.3     1  LIG1        0.0059
      6 N          -9.2060    1.0973    1.1322 N.am    1  LIG1       -0.1529
      7 O          -9.2262    3.0920    2.3285 O.2     1  LIG1       -0.2422
      8 C         -10.0810    0.0734    1.0813 C.cat   1  LIG1        0.2916
      9 C         -12.8305    2.7971    3.5073 C.3     1  LIG1       -0.0481
     10 C         -13.4107    2.6785    2.1075 C.3     1  LIG1       -0.0481
     11 C          -7.7919    1.0943    0.8045 C.3     1  LIG1        0.1137
     12 C          -9.7066   -1.2514    0.4524 C.3     1  LIG1        0.0509
     13 C          -7.3948    2.1760   -0.1731 C.ar    1  LIG1       -0.0073
     14 C         -10.7378   -2.3687    0.6348 C.3     1  LIG1       -0.0424
     15 C          -7.8183    2.1408   -1.5068 C.ar    1  LIG1       -0.0491
     16 C          -6.5572    3.2165    0.2304 C.ar    1  LIG1       -0.0544
     17 C         -11.9761   -2.2123   -0.2518 C.3     1  LIG1       -0.0554
     18 C          -7.3582    3.0822   -2.4580 C.ar    1  LIG1       -0.0138
     19 C          -6.0955    4.1557   -0.6942 C.ar    1  LIG1       -0.0533
     20 C         -12.9507   -3.3630   -0.0437 C.3     1  LIG1       -0.0653
     21 C          -6.4303    4.0778   -2.0611 C.ar    1  LIG1       -0.0106
     22 C          -7.8868    2.9514   -3.8721 C.3     1  LIG1        0.0732
     23 C          -5.7694    5.0128   -3.0023 C.ar    1  LIG1        0.0091
     24 O          -6.9124    2.5276   -4.8208 O.3     1  LIG1       -0.3754
     25 C          -4.3701    5.0791   -3.2019 C.ar    1  LIG1        0.1162
     26 C          -6.5530    5.9457   -3.7105 C.ar    1  LIG1       -0.0521
     27 C          -6.5110    1.1647   -4.7134 C.3     1  LIG1        0.0453
     28 S          -3.2272    3.9584   -2.3978 S.O2    1  LIG1        0.0741
     29 C          -3.8008    6.0344   -4.0666 C.ar    1  LIG1       -0.0345
     30 C          -5.9890    6.8629   -4.6035 C.ar    1  LIG1       -0.0611
     31 C          -7.6389    0.1815   -4.9840 C.3     1  LIG1       -0.0416
     32 N          -2.0858    3.6716   -3.6377 N.pl3   1  LIG1       -0.1965
     33 O          -2.6140    4.6897   -1.3144 O.2     1  LIG1       -0.1499
     34 O          -3.8886    2.6825   -2.2092 O.2     1  LIG1       -0.1499
     35 C          -4.6124    6.9105   -4.7783 C.ar    1  LIG1       -0.0599
     36 C          -1.1888    2.6367   -3.3577 C.ar    1  LIG1        0.1837
     37 C          -1.3584    1.2787   -3.7338 C.ar    1  LIG1        0.0342
     38 N          -0.0286    2.8388   -2.7334 N.ar    1  LIG1       -0.0614
     39 C          -0.2187    0.6695   -3.2552 C.ar    1  LIG1        0.1390
     40 C          -2.5063    0.6395   -4.4138 C.3     1  LIG1       -0.0330
     41 O           0.5787    1.5979   -2.6635 O.2     1  LIG1       -0.3578
     42 C           0.2778   -0.7188   -3.2437 C.3     1  LIG1       -0.0034
     43 H         -10.9064    2.0831    4.2162 H       1  LIG1        0.0316
     44 H         -12.0771    0.8085    3.8653 H       1  LIG1        0.0316
     45 H         -12.4208    2.0936    0.2627 H       1  LIG1        0.0316
     46 H         -11.7511    3.5366    1.0363 H       1  LIG1        0.0316
     47 H         -12.4296    3.8048    3.6626 H       1  LIG1        0.0267
     48 H         -13.5713    2.5985    4.2842 H       1  LIG1        0.0267
     49 H         -14.0324    1.7783    2.0278 H       1  LIG1        0.0267
     50 H         -14.0210    3.5432    1.8334 H       1  LIG1        0.0267
     51 H          -7.4920    0.1283    0.3866 H       1  LIG1        0.0783
     52 H          -7.2380    1.2137    1.7439 H       1  LIG1        0.0783
     53 H          -8.7717   -1.5842    0.9187 H       1  LIG1        0.0387
     54 H          -9.5011   -1.0867   -0.6115 H       1  LIG1        0.0387
     55 H         -11.0392   -2.4323    1.6877 H       1  LIG1        0.0271
     56 H         -10.2543   -3.3228    0.3887 H       1  LIG1        0.0271
     57 H          -8.5000    1.3522   -1.8217 H       1  LIG1        0.0625
     58 H          -6.2313    3.2966    1.2660 H       1  LIG1        0.0622
     59 H         -11.6784   -2.1782   -1.3059 H       1  LIG1        0.0263
     60 H         -12.4951   -1.2738   -0.0341 H       1  LIG1        0.0263
     61 H          -5.4200    4.9335   -0.3378 H       1  LIG1        0.0624
     62 H         -12.4955   -4.3182   -0.3238 H       1  LIG1        0.0230
     63 H         -13.8447   -3.2195   -0.6585 H       1  LIG1        0.0230
     64 H         -13.2662   -3.4267    1.0029 H       1  LIG1        0.0230
     65 H          -8.2738    3.9188   -4.2049 H       1  LIG1        0.0610
     66 H          -8.7655    2.2972   -3.9085 H       1  LIG1        0.0610
     67 H          -7.6316    5.9724   -3.5642 H       1  LIG1        0.0624
     68 H          -6.0440    0.9767   -3.7416 H       1  LIG1        0.0557
     69 H          -5.7366    1.0165   -5.4732 H       1  LIG1        0.0557
     70 H          -2.7211    6.1105   -4.1813 H       1  LIG1        0.0637
     71 H          -6.6298    7.5512   -5.1491 H       1  LIG1        0.0618
     72 H          -8.3412    0.1434   -4.1455 H       1  LIG1        0.0252
     73 H          -7.2423   -0.8280   -5.1253 H       1  LIG1        0.0252
     74 H          -8.2081    0.4701   -5.8733 H       1  LIG1        0.0252
     75 H          -2.6155    3.4999   -4.4892 H       1  LIG1        0.1753
     76 H          -4.1708    7.6374   -5.4554 H       1  LIG1        0.0618
     77 H          -3.2479    1.3741   -4.7405 H       1  LIG1        0.0280
     78 H          -3.0072   -0.0605   -3.7370 H       1  LIG1        0.0280
     79 H          -2.1727    0.0891   -5.2985 H       1  LIG1        0.0280
     80 H          -0.4465   -1.4007   -3.7004 H       1  LIG1        0.0309
     81 H           0.4565   -1.0549   -2.2179 H       1  LIG1        0.0309
     82 H           1.2147   -0.7958   -3.8032 H       1  LIG1        0.0309
@<TRIPOS>BOND
     1     1     5    1
     2     1     4    1
     3     1     2    1
     4     1     3    1
     5     2     6   am
     6     2     7    2
     7     3     8    2
     8     4     9    1
     9     5    10    1
    10     6     8    1
    11     6    11    1
    12     8    12    1
    13     9    10    1
    14    11    13    1
    15    12    14    1
    16    13    15   ar
    17    13    16   ar
    18    14    17    1
    19    15    18   ar
    20    16    19   ar
    21    17    20    1
    22    18    21   ar
    23    18    22    1
    24    19    21   ar
    25    21    23    1
    26    22    24    1
    27    23    26   ar
    28    23    25   ar
    29    24    27    1
    30    25    29   ar
    31    25    28    1
    32    26    30   ar
    33    27    31    1
    34    28    34    2
    35    28    33    2
    36    28    32    1
    37    29    35   ar
    38    30    35   ar
    39    32    36    1
    40    36    37   ar
    41    36    38   ar
    42    37    39   ar
    43    37    40    1
    44    38    41   ar
    45    39    41   ar
    46    39    42    1
    47     4    43    1
    48     4    44    1
    49     5    45    1
    50     5    46    1
    51     9    47    1
    52     9    48    1
    53    10    49    1
    54    10    50    1
    55    11    51    1
    56    11    52    1
    57    12    53    1
    58    12    54    1
    59    14    55    1
    60    14    56    1
    61    15    57    1
    62    16    58    1
    63    17    59    1
    64    17    60    1
    65    19    61    1
    66    20    62    1
    67    20    63    1
    68    20    64    1
    69    22    65    1
    70    22    66    1
    71    26    67    1
    72    27    68    1
    73    27    69    1
    74    29    70    1
    75    30    71    1
    76    31    72    1
    77    31    73    1
    78    31    74    1
    79    32    75    1
    80    35    76    1
    81    40    77    1
    82    40    78    1
    83    40    79    1
    84    42    80    1
    85    42    81    1
    86    42    82    1
@<TRIPOS>MOLECULE
02228316B
 82 86 0 0 0
SMALL
GASTEIGER

@<TRIPOS>ATOM
      1 C          -5.1705   -0.8902    2.2036 C.3     1  LIG1        0.2491
      2 C          -5.9370   -0.3753    1.0007 C.2     1  LIG1        0.3556
      3 N          -6.1222   -0.6880    3.3271 N.2     1  LIG1       -0.0687
      4 C          -4.7509   -2.3610    2.1179 C.3     1  LIG1        0.0059
      5 C          -3.8949   -0.0842    2.4712 C.3     1  LIG1        0.0059
      6 N          -6.9507    0.3809    1.5225 N.am    1  LIG1       -0.1529
      7 O          -5.7391   -0.6514   -0.1709 O.2     1  LIG1       -0.2422
      8 C          -7.0710    0.0452    2.8231 C.cat   1  LIG1        0.2916
      9 C          -3.2320   -2.3615    2.2855 C.3     1  LIG1       -0.0481
     10 C          -2.9402   -1.1005    3.0808 C.3     1  LIG1       -0.0481
     11 C          -7.9487    1.0244    0.6840 C.3     1  LIG1        0.1137
     12 C          -8.2686    0.4928    3.6293 C.3     1  LIG1        0.0509
     13 C          -7.3990    2.0908   -0.2339 C.ar    1  LIG1       -0.0073
     14 C          -8.3618   -0.0900    5.0387 C.3     1  LIG1       -0.0424
     15 C          -7.7687    2.0948   -1.5827 C.ar    1  LIG1       -0.0491
     16 C          -6.5610    3.1093    0.2211 C.ar    1  LIG1       -0.0544
     17 C          -7.4041    0.5764    6.0281 C.3     1  LIG1       -0.0554
     18 C          -7.2627    3.0456   -2.4952 C.ar    1  LIG1       -0.0138
     19 C          -6.0516    4.0651   -0.6701 C.ar    1  LIG1       -0.0533
     20 C          -7.5840    0.0123    7.4295 C.3     1  LIG1       -0.0653
     21 C          -6.3390    4.0256   -2.0485 C.ar    1  LIG1       -0.0106
     22 C          -7.7551    2.9415   -3.9268 C.3     1  LIG1        0.0732
     23 C          -5.7008    4.9874   -2.9809 C.ar    1  LIG1        0.0091
     24 O          -6.7628    2.5331   -4.8594 O.3     1  LIG1       -0.3754
     25 C          -4.3254    5.0367   -3.3054 C.ar    1  LIG1        0.1162
     26 C          -6.5325    5.9203   -3.6416 C.ar    1  LIG1       -0.0521
     27 C          -6.3498    1.1718   -4.7467 C.3     1  LIG1        0.0453
     28 S          -3.0476    4.2001   -2.3557 S.O2    1  LIG1        0.0741
     29 C          -3.8491    5.8945   -4.3205 C.ar    1  LIG1       -0.0345
     30 C          -6.0539    6.7800   -4.6350 C.ar    1  LIG1       -0.0611
     31 C          -7.4633    0.1873   -5.0694 C.3     1  LIG1       -0.0416
     32 N          -2.8750    5.3765   -1.1447 N.pl3   1  LIG1       -0.1965
     33 O          -3.5558    2.9634   -1.8130 O.2     1  LIG1       -0.1499
     34 O          -1.8420    4.2309   -3.1595 O.2     1  LIG1       -0.1499
     35 C          -4.7138    6.7514   -4.9918 C.ar    1  LIG1       -0.0599
     36 C          -1.7323    5.3726   -0.3540 C.ar    1  LIG1        0.1837
     37 C          -0.8544    6.4796   -0.1931 C.ar    1  LIG1        0.0342
     38 N          -1.3865    4.3520    0.4294 N.ar    1  LIG1       -0.0614
     39 C           0.0377    6.0455    0.7648 C.ar    1  LIG1        0.1390
     40 C          -0.8537    7.7872   -0.8880 C.3     1  LIG1       -0.0330
     41 O          -0.2763    4.7765    1.1339 O.2     1  LIG1       -0.3578
     42 C           1.2016    6.6511    1.4385 C.3     1  LIG1       -0.0034
     43 H          -5.0299   -2.8387    1.1734 H       1  LIG1        0.0316
     44 H          -5.2058   -2.9476    2.9255 H       1  LIG1        0.0316
     45 H          -4.0514    0.7665    3.1429 H       1  LIG1        0.0316
     46 H          -3.4734    0.3033    1.5352 H       1  LIG1        0.0316
     47 H          -2.7485   -2.3045    1.3032 H       1  LIG1        0.0267
     48 H          -2.8712   -3.2635    2.7883 H       1  LIG1        0.0267
     49 H          -3.1747   -1.2558    4.1407 H       1  LIG1        0.0267
     50 H          -1.8952   -0.7891    3.0023 H       1  LIG1        0.0267
     51 H          -8.7325    1.4801    1.2961 H       1  LIG1        0.0783
     52 H          -8.4208    0.2263    0.0963 H       1  LIG1        0.0783
     53 H          -9.1632    0.1745    3.0796 H       1  LIG1        0.0387
     54 H          -8.2788    1.5887    3.6626 H       1  LIG1        0.0387
     55 H          -8.1839   -1.1723    5.0158 H       1  LIG1        0.0271
     56 H          -9.3889    0.0518    5.3988 H       1  LIG1        0.0271
     57 H          -8.4453    1.3216   -1.9458 H       1  LIG1        0.0625
     58 H          -6.2599    3.1542    1.2659 H       1  LIG1        0.0622
     59 H          -7.5851    1.6571    6.0506 H       1  LIG1        0.0263
     60 H          -6.3649    0.4294    5.7180 H       1  LIG1        0.0263
     61 H          -5.3804    4.8206   -0.2696 H       1  LIG1        0.0624
     62 H          -8.5995    0.1920    7.7968 H       1  LIG1        0.0230
     63 H          -6.8832    0.4878    8.1227 H       1  LIG1        0.0230
     64 H          -7.3990   -1.0669    7.4453 H       1  LIG1        0.0230
     65 H          -8.1360    3.9138   -4.2518 H       1  LIG1        0.0610
     66 H          -8.6341    2.2903   -3.9976 H       1  LIG1        0.0610
     67 H          -7.5933    5.9641   -3.3965 H       1  LIG1        0.0624
     68 H          -5.9203    0.9779   -3.7590 H       1  LIG1        0.0557
     69 H          -5.5450    1.0366   -5.4778 H       1  LIG1        0.0557
     70 H          -2.7936    5.9120   -4.5872 H       1  LIG1        0.0637
     71 H          -6.7383    7.4559   -5.1424 H       1  LIG1        0.0618
     72 H          -8.2005    0.1432   -4.2623 H       1  LIG1        0.0252
     73 H          -7.0600   -0.8207   -5.2015 H       1  LIG1        0.0252
     74 H          -7.9966    0.4816   -5.9803 H       1  LIG1        0.0252
     75 H          -3.1607    6.2886   -1.4866 H       1  LIG1        0.1753
     76 H          -4.3400    7.4020   -5.7778 H       1  LIG1        0.0618
     77 H          -1.5998    7.8277   -1.6867 H       1  LIG1        0.0280
     78 H           0.1239    7.9738   -1.3454 H       1  LIG1        0.0280
     79 H          -1.0648    8.5975   -0.1843 H       1  LIG1        0.0280
     80 H           1.4694    7.6095    0.9819 H       1  LIG1        0.0309
     81 H           2.0726    5.9920    1.3742 H       1  LIG1        0.0309
     82 H           0.9798    6.8310    2.4945 H       1  LIG1        0.0309
@<TRIPOS>BOND
     1     1     5    1
     2     1     4    1
     3     1     2    1
     4     1     3    1
     5     2     6   am
     6     2     7    2
     7     3     8    2
     8     4     9    1
     9     5    10    1
    10     6     8    1
    11     6    11    1
    12     8    12    1
    13     9    10    1
    14    11    13    1
    15    12    14    1
    16    13    15   ar
    17    13    16   ar
    18    14    17    1
    19    15    18   ar
    20    16    19   ar
    21    17    20    1
    22    18    21   ar
    23    18    22    1
    24    19    21   ar
    25    21    23    1
    26    22    24    1
    27    23    26   ar
    28    23    25   ar
    29    24    27    1
    30    25    29   ar
    31    25    28    1
    32    26    30   ar
    33    27    31    1
    34    28    34    2
    35    28    33    2
    36    28    32    1
    37    29    35   ar
    38    30    35   ar
    39    32    36    1
    40    36    37   ar
    41    36    38   ar
    42    37    39   ar
    43    37    40    1
    44    38    41   ar
    45    39    41   ar
    46    39    42    1
    47     4    43    1
    48     4    44    1
    49     5    45    1
    50     5    46    1
    51     9    47    1
    52     9    48    1
    53    10    49    1
    54    10    50    1
    55    11    51    1
    56    11    52    1
    57    12    53    1
    58    12    54    1
    59    14    55    1
    60    14    56    1
    61    15    57    1
    62    16    58    1
    63    17    59    1
    64    17    60    1
    65    19    61    1
    66    20    62    1
    67    20    63    1
    68    20    64    1
    69    22    65    1
    70    22    66    1
    71    26    67    1
    72    27    68    1
    73    27    69    1
    74    29    70    1
    75    30    71    1
    76    31    72    1
    77    31    73    1
    78    31    74    1
    79    32    75    1
    80    35    76    1
    81    40    77    1
    82    40    78    1
    83    40    79    1
    84    42    80    1
    85    42    81    1
    86    42    82    1
@<TRIPOS>MOLECULE
02228316B
 82 86 0 0 0
SMALL
GASTEIGER

@<TRIPOS>ATOM
      1 C         -11.3563    1.7177    1.7969 C.3     1  LIG1        0.2491
      2 C          -9.9734    2.2416    1.4680 C.2     1  LIG1        0.3556
      3 N         -11.1390    0.2646    1.9808 N.2     1  LIG1       -0.0687
      4 C         -11.9629    2.3340    3.0596 C.3     1  LIG1        0.0059
      5 C         -12.3581    1.9452    0.6609 C.3     1  LIG1        0.0059
      6 N          -9.2208    1.1368    1.1767 N.am    1  LIG1       -0.1529
      7 O          -9.6234    3.4116    1.5065 O.2     1  LIG1       -0.2422
      8 C          -9.9150    0.0587    1.6037 C.cat   1  LIG1        0.2916
      9 C         -13.2141    3.0643    2.5811 C.3     1  LIG1       -0.0481
     10 C         -13.6657    2.2597    1.3746 C.3     1  LIG1       -0.0481
     11 C          -7.7864    1.2045    0.9407 C.3     1  LIG1        0.1137
     12 C          -9.2862   -1.3180    1.6230 C.3     1  LIG1        0.0509
     13 C          -7.3485    2.2170   -0.0904 C.ar    1  LIG1       -0.0073
     14 C         -10.0812   -2.3936    2.3693 C.3     1  LIG1       -0.0424
     15 C          -7.7448    2.1159   -1.4279 C.ar    1  LIG1       -0.0491
     16 C          -6.5061    3.2694    0.2733 C.ar    1  LIG1       -0.0544
     17 C         -11.3910   -2.8550    1.7207 C.3     1  LIG1       -0.0554
     18 C          -7.2741    3.0194   -2.4094 C.ar    1  LIG1       -0.0138
     19 C          -6.0335    4.1711   -0.6843 C.ar    1  LIG1       -0.0533
     20 C         -11.2306   -3.3795    0.3041 C.3     1  LIG1       -0.0653
     21 C          -6.3515    4.0366   -2.0472 C.ar    1  LIG1       -0.0106
     22 C          -7.8180    2.8555   -3.8160 C.3     1  LIG1        0.0732
     23 C          -5.7375    4.9519   -3.0379 C.ar    1  LIG1        0.0091
     24 O          -6.8410    2.4871   -4.7817 O.3     1  LIG1       -0.3754
     25 C          -4.3654    4.9945   -3.3752 C.ar    1  LIG1        0.1162
     26 C          -6.5788    5.8643   -3.7114 C.ar    1  LIG1       -0.0521
     27 C          -6.3885    1.1381   -4.7008 C.3     1  LIG1        0.0453
     28 S          -3.0835    4.1450   -2.4376 S.O2    1  LIG1        0.0741
     29 C          -3.8958    5.8418   -4.4024 C.ar    1  LIG1       -0.0345
     30 C          -6.1071    6.7140   -4.7174 C.ar    1  LIG1       -0.0611
     31 C          -7.4774    0.1327   -5.0423 C.3     1  LIG1       -0.0416
     32 N          -2.8659    5.3271   -1.2431 N.pl3   1  LIG1       -0.1965
     33 O          -3.6046    2.9206   -1.8794 O.2     1  LIG1       -0.1499
     34 O          -1.8933    4.1452   -3.2663 O.2     1  LIG1       -0.1499
     35 C          -4.7676    6.6895   -5.0763 C.ar    1  LIG1       -0.0599
     36 C          -1.7230    5.3148   -0.4532 C.ar    1  LIG1        0.1837
     37 C          -0.8785    6.4385   -0.2364 C.ar    1  LIG1        0.0342
     38 N          -1.3390    4.2640    0.2708 N.ar    1  LIG1       -0.0614
     39 C           0.0297    5.9835    0.6961 C.ar    1  LIG1        0.1390
     40 C          -0.9187    7.7799   -0.8614 C.3     1  LIG1       -0.0330
     41 O          -0.2418    4.6868    0.9975 O.2     1  LIG1       -0.3578
     42 C           1.1746    6.5915    1.4010 C.3     1  LIG1       -0.0034
     43 H         -11.2874    3.0242    3.5757 H       1  LIG1        0.0316
     44 H         -12.2474    1.5570    3.7796 H       1  LIG1        0.0316
     45 H         -12.4682    1.0800   -0.0020 H       1  LIG1        0.0316
     46 H         -12.0626    2.8014    0.0421 H       1  LIG1        0.0316
     47 H         -12.9588    4.0867    2.2774 H       1  LIG1        0.0267
     48 H         -13.9825    3.1212    3.3572 H       1  LIG1        0.0267
     49 H         -14.1547    1.3327    1.6974 H       1  LIG1        0.0267
     50 H         -14.3632    2.8128    0.7396 H       1  LIG1        0.0267
     51 H          -7.4181    0.2229    0.6226 H       1  LIG1        0.0783
     52 H          -7.3160    1.4156    1.9091 H       1  LIG1        0.0783
     53 H          -8.3131   -1.2276    2.1214 H       1  LIG1        0.0387
     54 H          -9.0839   -1.6217    0.5907 H       1  LIG1        0.0387
     55 H         -10.3035   -2.0409    3.3844 H       1  LIG1        0.0271
     56 H          -9.4329   -3.2717    2.4859 H       1  LIG1        0.0271
     57 H          -8.4259    1.3171   -1.7175 H       1  LIG1        0.0625
     58 H          -6.1928    3.3949    1.3077 H       1  LIG1        0.0622
     59 H         -12.1329   -2.0507    1.7237 H       1  LIG1        0.0263
     60 H         -11.8123   -3.6555    2.3417 H       1  LIG1        0.0263
     61 H          -5.3760    4.9672   -0.3453 H       1  LIG1        0.0624
     62 H         -10.9477   -2.5807   -0.3875 H       1  LIG1        0.0230
     63 H         -12.1785   -3.7997   -0.0478 H       1  LIG1        0.0230
     64 H         -10.4730   -4.1676    0.2588 H       1  LIG1        0.0230
     65 H          -8.2604    3.8032   -4.1386 H       1  LIG1        0.0610
     66 H          -8.6613    2.1563   -3.8384 H       1  LIG1        0.0610
     67 H          -7.6372    5.9115   -3.4561 H       1  LIG1        0.0624
     68 H          -5.9525    0.9342   -3.7177 H       1  LIG1        0.0557
     69 H          -5.5832    1.0405   -5.4363 H       1  LIG1        0.0557
     70 H          -2.8409    5.8596   -4.6734 H       1  LIG1        0.0637
     71 H          -6.7959    7.3830   -5.2276 H       1  LIG1        0.0618
     72 H          -8.2092    0.0510   -4.2324 H       1  LIG1        0.0252
     73 H          -7.0488   -0.8612   -5.1997 H       1  LIG1        0.0252
     74 H          -8.0217    0.4344   -5.9430 H       1  LIG1        0.0252
     75 H          -3.1685    6.2408   -1.5646 H       1  LIG1        0.1753
     76 H          -4.3989    7.3371   -5.8677 H       1  LIG1        0.0618
     77 H          -1.6716    7.8427   -1.6524 H       1  LIG1        0.0280
     78 H           0.0501    8.0170   -1.3147 H       1  LIG1        0.0280
     79 H          -1.1455    8.5474   -0.1150 H       1  LIG1        0.0280
     80 H           1.4440    7.5563    0.9596 H       1  LIG1        0.0309
     81 H           2.0523    5.9404    1.3503 H       1  LIG1        0.0309
     82 H           0.9280    6.7593    2.4540 H       1  LIG1        0.0309
@<TRIPOS>BOND
     1     1     5    1
     2     1     4    1
     3     1     2    1
     4     1     3    1
     5     2     6   am
     6     2     7    2
     7     3     8    2
     8     4     9    1
     9     5    10    1
    10     6     8    1
    11     6    11    1
    12     8    12    1
    13     9    10    1
    14    11    13    1
    15    12    14    1
    16    13    15   ar
    17    13    16   ar
    18    14    17    1
    19    15    18   ar
    20    16    19   ar
    21    17    20    1
    22    18    21   ar
    23    18    22    1
    24    19    21   ar
    25    21    23    1
    26    22    24    1
    27    23    26   ar
    28    23    25   ar
    29    24    27    1
    30    25    29   ar
    31    25    28    1
    32    26    30   ar
    33    27    31    1
    34    28    34    2
    35    28    33    2
    36    28    32    1
    37    29    35   ar
    38    30    35   ar
    39    32    36    1
    40    36    37   ar
    41    36    38   ar
    42    37    39   ar
    43    37    40    1
    44    38    41   ar
    45    39    41   ar
    46    39    42    1
    47     4    43    1
    48     4    44    1
    49     5    45    1
    50     5    46    1
    51     9    47    1
    52     9    48    1
    53    10    49    1
    54    10    50    1
    55    11    51    1
    56    11    52    1
    57    12    53    1
    58    12    54    1
    59    14    55    1
    60    14    56    1
    61    15    57    1
    62    16    58    1
    63    17    59    1
    64    17    60    1
    65    19    61    1
    66    20    62    1
    67    20    63    1
    68    20    64    1
    69    22    65    1
    70    22    66    1
    71    26    67    1
    72    27    68    1
    73    27    69    1
    74    29    70    1
    75    30    71    1
    76    31    72    1
    77    31    73    1
    78    31    74    1
    79    32    75    1
    80    35    76    1
    81    40    77    1
    82    40    78    1
    83    40    79    1
    84    42    80    1
    85    42    81    1
    86    42    82    1
@<TRIPOS>MOLECULE
02228316B
 82 86 0 0 0
SMALL
GASTEIGER

@<TRIPOS>ATOM
      1 C         -11.1917    1.6254    2.0491 C.3     1  LIG1        0.2491
      2 C          -9.7452    2.0092    1.8201 C.2     1  LIG1        0.3556
      3 N         -11.2494    0.2079    1.6185 N.2     1  LIG1       -0.0687
      4 C         -11.6530    1.7642    3.5012 C.3     1  LIG1        0.0059
      5 C         -12.1557    2.4510    1.1926 C.3     1  LIG1        0.0059
      6 N          -9.2107    0.9928    1.0766 N.am    1  LIG1       -0.1529
      7 O          -9.1829    3.0048    2.2471 O.2     1  LIG1       -0.2422
      8 C         -10.0960   -0.0246    1.0715 C.cat   1  LIG1        0.2916
      9 C         -12.8047    2.7656    3.4600 C.3     1  LIG1       -0.0481
     10 C         -13.3911    2.5992    2.0686 C.3     1  LIG1       -0.0481
     11 C          -7.7994    0.9600    0.7321 C.3     1  LIG1        0.1137
     12 C          -9.7588   -1.3621    0.4490 C.3     1  LIG1        0.0509
     13 C          -7.3732    2.0554   -0.2168 C.ar    1  LIG1       -0.0073
     14 C         -10.8106   -2.4589    0.6479 C.3     1  LIG1       -0.0424
     15 C          -7.8584    2.1140   -1.5237 C.ar    1  LIG1       -0.0491
     16 C          -6.4478    3.0179    0.1759 C.ar    1  LIG1       -0.0544
     17 C         -12.0870   -2.2508   -0.1732 C.3     1  LIG1       -0.0554
     18 C          -7.3648    3.0522   -2.4685 C.ar    1  LIG1       -0.0138
     19 C          -5.9662    3.9640   -0.7378 C.ar    1  LIG1       -0.0533
     20 C         -13.0571   -3.4098    0.0097 C.3     1  LIG1       -0.0653
     21 C          -6.3297    3.9590   -2.0980 C.ar    1  LIG1       -0.0106
     22 C          -8.0237    3.0042   -3.8367 C.3     1  LIG1        0.0732
     23 C          -5.6443    4.8853   -3.0531 C.ar    1  LIG1        0.0091
     24 O          -7.1649    2.6296   -4.9045 O.3     1  LIG1       -0.3754
     25 C          -4.2435    4.9957   -3.2673 C.ar    1  LIG1        0.1162
     26 C          -6.4437    5.7610   -3.8241 C.ar    1  LIG1       -0.0521
     27 C          -6.6738    1.2926   -4.8509 C.3     1  LIG1        0.0453
     28 S          -2.9822    4.1867   -2.2582 S.O2    1  LIG1        0.0741
     29 C          -3.7194    5.8619   -4.2579 C.ar    1  LIG1       -0.0345
     30 C          -5.9204    6.6087   -4.8088 C.ar    1  LIG1       -0.0611
     31 C          -7.7709    0.2409   -4.9237 C.3     1  LIG1       -0.0416
     32 N          -2.9132    5.3303   -1.0017 N.pl3   1  LIG1       -0.1965
     33 O          -3.4677    2.9152   -1.7912 O.2     1  LIG1       -0.1499
     34 O          -1.7322    4.2860   -2.9945 O.2     1  LIG1       -0.1499
     35 C          -4.5560    6.6503   -5.0360 C.ar    1  LIG1       -0.0599
     36 C          -1.7620    5.3974   -0.2223 C.ar    1  LIG1        0.1837
     37 C          -0.8727    6.5049   -0.1788 C.ar    1  LIG1        0.0342
     38 N          -1.4339    4.4645    0.6709 N.ar    1  LIG1       -0.0614
     39 C           0.0036    6.1746    0.8332 C.ar    1  LIG1        0.1390
     40 C          -0.8506    7.7207   -1.0217 C.3     1  LIG1       -0.0330
     41 O          -0.3249    4.9556    1.3367 O.2     1  LIG1       -0.3578
     42 C           1.1651    6.8445    1.4496 C.3     1  LIG1       -0.0034
     43 H         -10.8643    2.1139    4.1758 H       1  LIG1        0.0316
     44 H         -12.0162    0.8064    3.8937 H       1  LIG1        0.0316
     45 H         -12.4023    1.9770    0.2361 H       1  LIG1        0.0316
     46 H         -11.7373    3.4412    0.9739 H       1  LIG1        0.0316
     47 H         -12.4182    3.7842    3.5845 H       1  LIG1        0.0267
     48 H         -13.5409    2.5828    4.2478 H       1  LIG1        0.0267
     49 H         -14.0035    1.6907    2.0194 H       1  LIG1        0.0267
     50 H         -14.0116    3.4490    1.7711 H       1  LIG1        0.0267
     51 H          -7.5359   -0.0026    0.2824 H       1  LIG1        0.0783
     52 H          -7.2358    1.0331    1.6703 H       1  LIG1        0.0783
     53 H          -8.8236   -1.7109    0.9028 H       1  LIG1        0.0387
     54 H          -9.5663   -1.2086   -0.6191 H       1  LIG1        0.0387
     55 H         -11.0648   -2.5437    1.7116 H       1  LIG1        0.0271
     56 H         -10.3620   -3.4170    0.3548 H       1  LIG1        0.0271
     57 H          -8.6236    1.4004   -1.8268 H       1  LIG1        0.0625
     58 H          -6.0642    3.0345    1.1946 H       1  LIG1        0.0622
     59 H         -11.8380   -2.1527   -1.2357 H       1  LIG1        0.0263
     60 H         -12.5949   -1.3283    0.1241 H       1  LIG1        0.0263
     61 H          -5.2519    4.6861   -0.3553 H       1  LIG1        0.0624
     62 H         -12.6290   -4.3426   -0.3701 H       1  LIG1        0.0230
     63 H         -13.9861   -3.2162   -0.5358 H       1  LIG1        0.0230
     64 H         -13.3082   -3.5514    1.0662 H       1  LIG1        0.0230
     65 H          -8.4515    3.9826   -4.0707 H       1  LIG1        0.0610
     66 H          -8.9055    2.3515   -3.8295 H       1  LIG1        0.0610
     67 H          -7.5191    5.7986   -3.6647 H       1  LIG1        0.0624
     68 H          -6.0497    1.1522   -3.9628 H       1  LIG1        0.0557
     69 H          -6.0208    1.1724   -5.7214 H       1  LIG1        0.0557
     70 H          -2.6453    5.9364   -4.4270 H       1  LIG1        0.0637
     71 H          -6.5896    7.2287   -5.4003 H       1  LIG1        0.0618
     72 H          -8.3566    0.2090   -4.0001 H       1  LIG1        0.0252
     73 H          -7.3397   -0.7531   -5.0709 H       1  LIG1        0.0252
     74 H          -8.4666    0.4548   -5.7409 H       1  LIG1        0.0252
     75 H          -3.2571    6.2309   -1.3211 H       1  LIG1        0.1753
     76 H          -4.1424    7.3014   -5.8023 H       1  LIG1        0.0618
     77 H          -1.6378    7.7063   -1.7814 H       1  LIG1        0.0280
     78 H           0.1085    7.8003   -1.5450 H       1  LIG1        0.0280
     79 H          -0.9854    8.6182   -0.4106 H       1  LIG1        0.0280
     80 H           1.3852    7.7940    0.9510 H       1  LIG1        0.0309
     81 H           2.0562    6.2134    1.3833 H       1  LIG1        0.0309
     82 H           0.9686    7.0578    2.5052 H       1  LIG1        0.0309
@<TRIPOS>BOND
     1     1     5    1
     2     1     4    1
     3     1     2    1
     4     1     3    1
     5     2     6   am
     6     2     7    2
     7     3     8    2
     8     4     9    1
     9     5    10    1
    10     6     8    1
    11     6    11    1
    12     8    12    1
    13     9    10    1
    14    11    13    1
    15    12    14    1
    16    13    15   ar
    17    13    16   ar
    18    14    17    1
    19    15    18   ar
    20    16    19   ar
    21    17    20    1
    22    18    21   ar
    23    18    22    1
    24    19    21   ar
    25    21    23    1
    26    22    24    1
    27    23    26   ar
    28    23    25   ar
    29    24    27    1
    30    25    29   ar
    31    25    28    1
    32    26    30   ar
    33    27    31    1
    34    28    34    2
    35    28    33    2
    36    28    32    1
    37    29    35   ar
    38    30    35   ar
    39    32    36    1
    40    36    37   ar
    41    36    38   ar
    42    37    39   ar
    43    37    40    1
    44    38    41   ar
    45    39    41   ar
    46    39    42    1
    47     4    43    1
    48     4    44    1
    49     5    45    1
    50     5    46    1
    51     9    47    1
    52     9    48    1
    53    10    49    1
    54    10    50    1
    55    11    51    1
    56    11    52    1
    57    12    53    1
    58    12    54    1
    59    14    55    1
    60    14    56    1
    61    15    57    1
    62    16    58    1
    63    17    59    1
    64    17    60    1
    65    19    61    1
    66    20    62    1
    67    20    63    1
    68    20    64    1
    69    22    65    1
    70    22    66    1
    71    26    67    1
    72    27    68    1
    73    27    69    1
    74    29    70    1
    75    30    71    1
    76    31    72    1
    77    31    73    1
    78    31    74    1
    79    32    75    1
    80    35    76    1
    81    40    77    1
    82    40    78    1
    83    40    79    1
    84    42    80    1
    85    42    81    1
    86    42    82    1
@<TRIPOS>MOLECULE
02228316B
 82 86 0 0 0
SMALL
GASTEIGER

@<TRIPOS>ATOM
      1 C         -11.2560    1.6849    1.9748 C.3     1  LIG1        0.2491
      2 C          -9.8034    2.0897    1.8341 C.2     1  LIG1        0.3556
      3 N         -11.2880    0.2908    1.4664 N.2     1  LIG1       -0.0687
      4 C         -11.7526    1.7289    3.4235 C.3     1  LIG1        0.0059
      5 C         -12.2001    2.5608    1.1505 C.3     1  LIG1        0.0059
      6 N          -9.1966    1.0644    1.1672 N.am    1  LIG1       -0.1529
      7 O          -9.2949    3.1083    2.2743 O.2     1  LIG1       -0.2422
      8 C         -10.0778    0.0502    1.0632 C.cat   1  LIG1        0.2916
      9 C         -12.8544    2.7830    3.4305 C.3     1  LIG1       -0.0481
     10 C         -13.4341    2.7114    2.0285 C.3     1  LIG1       -0.0481
     11 C          -7.7704    1.0639    0.8903 C.3     1  LIG1        0.1137
     12 C          -9.6672   -1.2913    0.4970 C.3     1  LIG1        0.0509
     13 C          -7.3538    2.1198   -0.1080 C.ar    1  LIG1       -0.0073
     14 C         -10.7592   -2.3650    0.5394 C.3     1  LIG1       -0.0424
     15 C          -7.7628    2.0589   -1.4441 C.ar    1  LIG1       -0.0491
     16 C          -6.5260    3.1738    0.2822 C.ar    1  LIG1       -0.0544
     17 C         -10.9977   -2.9134    1.9506 C.3     1  LIG1       -0.0554
     18 C          -7.3035    2.9927   -2.4030 C.ar    1  LIG1       -0.0138
     19 C          -6.0636    4.1043   -0.6538 C.ar    1  LIG1       -0.0533
     20 C         -12.0818   -3.9811    1.9586 C.3     1  LIG1       -0.0653
     21 C          -6.3801    4.0018   -2.0202 C.ar    1  LIG1       -0.0106
     22 C          -7.8578    2.8612   -3.8095 C.3     1  LIG1        0.0732
     23 C          -5.7601    4.9319   -2.9928 C.ar    1  LIG1        0.0091
     24 O          -6.8917    2.5046   -4.7902 O.3     1  LIG1       -0.3754
     25 C          -4.3842    4.9841   -3.3210 C.ar    1  LIG1        0.1162
     26 C          -6.5975    5.8483   -3.6696 C.ar    1  LIG1       -0.0521
     27 C          -6.4308    1.1575   -4.7262 C.3     1  LIG1        0.0453
     28 S          -3.1033    4.1409   -2.3787 S.O2    1  LIG1        0.0741
     29 C          -3.9105    5.8345   -4.3408 C.ar    1  LIG1       -0.0345
     30 C          -6.1220    6.6997   -4.6685 C.ar    1  LIG1       -0.0611
     31 C          -7.5230    0.1449   -5.0346 C.3     1  LIG1       -0.0416
     32 N          -2.9037    5.3177   -1.1747 N.pl3   1  LIG1       -0.1965
     33 O          -3.6181    2.9082   -1.8308 O.2     1  LIG1       -0.1499
     34 O          -1.9073    4.1522   -3.1985 O.2     1  LIG1       -0.1499
     35 C          -4.7807    6.6821   -5.0211 C.ar    1  LIG1       -0.0599
     36 C          -1.7523    5.3189   -0.3959 C.ar    1  LIG1        0.1837
     37 C          -0.8969    6.4413   -0.2182 C.ar    1  LIG1        0.0342
     38 N          -1.3739    4.2875    0.3572 N.ar    1  LIG1       -0.0614
     39 C           0.0117    6.0071    0.7243 C.ar    1  LIG1        0.1390
     40 C          -0.9282    7.7630   -0.8843 C.3     1  LIG1       -0.0330
     41 O          -0.2690    4.7221    1.0653 O.2     1  LIG1       -0.3578
     42 C           1.1646    6.6264    1.4053 C.3     1  LIG1       -0.0034
     43 H         -10.9684    1.9843    4.1440 H       1  LIG1        0.0316
     44 H         -12.1713    0.7610    3.7267 H       1  LIG1        0.0316
     45 H         -12.4565    2.1266    0.1774 H       1  LIG1        0.0316
     46 H         -11.7590    3.5482    0.9651 H       1  LIG1        0.0316
     47 H         -12.4229    3.7750    3.6098 H       1  LIG1        0.0267
     48 H         -13.6041    2.5925    4.2035 H       1  LIG1        0.0267
     49 H         -14.0799    1.8308    1.9292 H       1  LIG1        0.0267
     50 H         -14.0205    3.5983    1.7727 H       1  LIG1        0.0267
     51 H          -7.4498    0.0880    0.5150 H       1  LIG1        0.0783
     52 H          -7.2523    1.2217    1.8449 H       1  LIG1        0.0783
     53 H          -8.7795   -1.6479    1.0306 H       1  LIG1        0.0387
     54 H          -9.3774   -1.1243   -0.5472 H       1  LIG1        0.0387
     55 H         -10.4520   -3.1952   -0.1094 H       1  LIG1        0.0271
     56 H         -11.6966   -1.9734    0.1267 H       1  LIG1        0.0271
     57 H          -8.4393    1.2640   -1.7535 H       1  LIG1        0.0625
     58 H          -6.2102    3.2730    1.3193 H       1  LIG1        0.0622
     59 H         -11.2925   -2.1095    2.6332 H       1  LIG1        0.0263
     60 H         -10.0691   -3.3434    2.3433 H       1  LIG1        0.0263
     61 H          -5.4078    4.8941   -0.2949 H       1  LIG1        0.0624
     62 H         -13.0319   -3.5792    1.5924 H       1  LIG1        0.0230
     63 H         -12.2410   -4.3520    2.9763 H       1  LIG1        0.0230
     64 H         -11.8014   -4.8309    1.3283 H       1  LIG1        0.0230
     65 H          -8.2969    3.8174   -4.1104 H       1  LIG1        0.0610
     66 H          -8.7067    2.1694   -3.8401 H       1  LIG1        0.0610
     67 H          -7.6564    5.8931   -3.4217 H       1  LIG1        0.0624
     68 H          -5.9628    0.9555   -3.7576 H       1  LIG1        0.0557
     69 H          -5.6481    1.0656   -5.4865 H       1  LIG1        0.0557
     70 H          -2.8548    5.8578   -4.6063 H       1  LIG1        0.0637
     71 H          -6.8087    7.3685   -5.1832 H       1  LIG1        0.0618
     72 H          -8.2294    0.0586   -4.2029 H       1  LIG1        0.0252
     73 H          -7.0929   -0.8461   -5.2041 H       1  LIG1        0.0252
     74 H          -8.0966    0.4426   -5.9183 H       1  LIG1        0.0252
     75 H          -3.2121    6.2292   -1.4973 H       1  LIG1        0.1753
     76 H          -4.4084    7.3314   -5.8089 H       1  LIG1        0.0618
     77 H          -1.6865    7.8082   -1.6714 H       1  LIG1        0.0280
     78 H           0.0395    7.9752   -1.3520 H       1  LIG1        0.0280
     79 H          -1.1413    8.5557   -0.1607 H       1  LIG1        0.0280
     80 H           1.4225    7.5888    0.9521 H       1  LIG1        0.0309
     81 H           2.0446    5.9791    1.3459 H       1  LIG1        0.0309
     82 H           0.9343    6.8021    2.4609 H       1  LIG1        0.0309
@<TRIPOS>BOND
     1     1     5    1
     2     1     4    1
     3     1     2    1
     4     1     3    1
     5     2     6   am
     6     2     7    2
     7     3     8    2
     8     4     9    1
     9     5    10    1
    10     6     8    1
    11     6    11    1
    12     8    12    1
    13     9    10    1
    14    11    13    1
    15    12    14    1
    16    13    15   ar
    17    13    16   ar
    18    14    17    1
    19    15    18   ar
    20    16    19   ar
    21    17    20    1
    22    18    21   ar
    23    18    22    1
    24    19    21   ar
    25    21    23    1
    26    22    24    1
    27    23    26   ar
    28    23    25   ar
    29    24    27    1
    30    25    29   ar
    31    25    28    1
    32    26    30   ar
    33    27    31    1
    34    28    34    2
    35    28    33    2
    36    28    32    1
    37    29    35   ar
    38    30    35   ar
    39    32    36    1
    40    36    37   ar
    41    36    38   ar
    42    37    39   ar
    43    37    40    1
    44    38    41   ar
    45    39    41   ar
    46    39    42    1
    47     4    43    1
    48     4    44    1
    49     5    45    1
    50     5    46    1
    51     9    47    1
    52     9    48    1
    53    10    49    1
    54    10    50    1
    55    11    51    1
    56    11    52    1
    57    12    53    1
    58    12    54    1
    59    14    55    1
    60    14    56    1
    61    15    57    1
    62    16    58    1
    63    17    59    1
    64    17    60    1
    65    19    61    1
    66    20    62    1
    67    20    63    1
    68    20    64    1
    69    22    65    1
    70    22    66    1
    71    26    67    1
    72    27    68    1
    73    27    69    1
    74    29    70    1
    75    30    71    1
    76    31    72    1
    77    31    73    1
    78    31    74    1
    79    32    75    1
    80    35    76    1
    81    40    77    1
    82    40    78    1
    83    40    79    1
    84    42    80    1
    85    42    81    1
    86    42    82    1
@<TRIPOS>MOLECULE
02228316B
 82 86 0 0 0
SMALL
GASTEIGER

@<TRIPOS>ATOM
      1 C          -5.9812   -0.0687    3.5596 C.3     1  LIG1        0.2491
      2 C          -6.4740   -0.1699    2.1289 C.2     1  LIG1        0.3556
      3 N          -6.7294    1.0892    4.1143 N.2     1  LIG1       -0.0687
      4 C          -6.2575   -1.3168    4.4038 C.3     1  LIG1        0.0059
      5 C          -4.4769    0.1960    3.6384 C.3     1  LIG1        0.0059
      6 N          -7.2857    0.9130    1.9431 N.am    1  LIG1       -0.1529
      7 O          -6.2151   -1.0555    1.3296 O.2     1  LIG1       -0.2422
      8 C          -7.4087    1.5637    3.1167 C.cat   1  LIG1        0.2916
      9 C          -4.8886   -1.7897    4.8877 C.3     1  LIG1       -0.0481
     10 C          -4.0393   -0.5301    4.9021 C.3     1  LIG1       -0.0481
     11 C          -7.9881    1.1574    0.6962 C.3     1  LIG1        0.1137
     12 C          -8.3101    2.7718    3.2396 C.3     1  LIG1        0.0509
     13 C          -7.3267    2.1406   -0.2470 C.ar    1  LIG1       -0.0073
     14 C          -8.3358    3.4440    4.6122 C.3     1  LIG1       -0.0424
     15 C          -7.7389    2.1533   -1.5878 C.ar    1  LIG1       -0.0491
     16 C          -6.3857    3.0899    0.1517 C.ar    1  LIG1       -0.0544
     17 C          -7.0197    4.0632    5.0962 C.3     1  LIG1       -0.0554
     18 C          -7.2006    3.0529   -2.5349 C.ar    1  LIG1       -0.0138
     19 C          -5.8737    4.0178   -0.7621 C.ar    1  LIG1       -0.0533
     20 C          -6.3698    5.0139    4.1053 C.3     1  LIG1       -0.0653
     21 C          -6.2356    4.0023   -2.1238 C.ar    1  LIG1       -0.0106
     22 C          -7.7470    2.9699   -3.9428 C.3     1  LIG1        0.0732
     23 C          -5.5910    4.9627   -3.0512 C.ar    1  LIG1        0.0091
     24 O          -8.9512    3.7357   -3.9724 O.3     1  LIG1       -0.3754
     25 C          -4.1968    5.0447   -3.2756 C.ar    1  LIG1        0.1162
     26 C          -6.4027    5.8871   -3.7418 C.ar    1  LIG1       -0.0521
     27 C          -9.5749    3.7808   -5.2507 C.3     1  LIG1        0.0453
     28 S          -3.0493    3.9237   -2.4938 S.O2    1  LIG1        0.0741
     29 C          -3.6567    6.0038   -4.1529 C.ar    1  LIG1       -0.0345
     30 C          -5.8677    6.8162   -4.6389 C.ar    1  LIG1       -0.0611
     31 C         -10.4032    2.5352   -5.5063 C.3     1  LIG1       -0.0416
     32 N          -1.8706    3.6827   -3.7050 N.pl3   1  LIG1       -0.1965
     33 O          -2.4806    4.6220   -1.3625 O.2     1  LIG1       -0.1499
     34 O          -3.6786    2.6238   -2.3728 O.2     1  LIG1       -0.1499
     35 C          -4.4949    6.8768   -4.8421 C.ar    1  LIG1       -0.0599
     36 C          -0.6982    3.0701   -3.2453 C.ar    1  LIG1        0.1837
     37 C          -0.4868    1.6723   -3.1017 C.ar    1  LIG1        0.0342
     38 N           0.4024    3.7701   -2.9700 N.ar    1  LIG1       -0.0614
     39 C           0.8214    1.5902   -2.6744 C.ar    1  LIG1        0.1390
     40 C          -1.4346    0.5535   -3.3089 C.3     1  LIG1       -0.0330
     41 O           1.3536    2.8385   -2.5957 O.2     1  LIG1       -0.3578
     42 C           1.7152    0.4761   -2.3052 C.3     1  LIG1       -0.0034
     43 H          -6.7647   -2.1127    3.8482 H       1  LIG1        0.0316
     44 H          -6.8845   -1.0756    5.2713 H       1  LIG1        0.0316
     45 H          -4.2253    1.2610    3.6818 H       1  LIG1        0.0316
     46 H          -3.9568   -0.2327    2.7726 H       1  LIG1        0.0316
     47 H          -4.4728   -2.5155    4.1788 H       1  LIG1        0.0267
     48 H          -4.9397   -2.2677    5.8705 H       1  LIG1        0.0267
     49 H          -4.2691    0.0750    5.7871 H       1  LIG1        0.0267
     50 H          -2.9680   -0.7502    4.9050 H       1  LIG1        0.0267
     51 H          -8.9929    1.5280    0.9252 H       1  LIG1        0.0783
     52 H          -8.0977    0.1966    0.1779 H       1  LIG1        0.0783
     53 H          -9.3288    2.4367    3.0088 H       1  LIG1        0.0387
     54 H          -8.0446    3.5009    2.4690 H       1  LIG1        0.0387
     55 H          -8.6771    2.7222    5.3646 H       1  LIG1        0.0271
     56 H          -9.0948    4.2363    4.5810 H       1  LIG1        0.0271
     57 H          -8.5020    1.4464   -1.9151 H       1  LIG1        0.0625
     58 H          -6.0234    3.1343    1.1745 H       1  LIG1        0.0622
     59 H          -6.3017    3.2810    5.3627 H       1  LIG1        0.0263
     60 H          -7.2249    4.6115    6.0240 H       1  LIG1        0.0263
     61 H          -5.1551    4.7504   -0.3942 H       1  LIG1        0.0624
     62 H          -6.0020    4.4803    3.2247 H       1  LIG1        0.0230
     63 H          -5.5105    5.5080    4.5706 H       1  LIG1        0.0230
     64 H          -7.0713    5.7874    3.7791 H       1  LIG1        0.0230
     65 H          -7.9570    1.9241   -4.1960 H       1  LIG1        0.0610
     66 H          -7.0299    3.3408   -4.6821 H       1  LIG1        0.0610
     67 H          -7.4809    5.8868   -3.5809 H       1  LIG1        0.0624
     68 H          -8.8346    3.9424   -6.0417 H       1  LIG1        0.0557
     69 H         -10.2417    4.6497   -5.2450 H       1  LIG1        0.0557
     70 H          -2.5806    6.0857   -4.2980 H       1  LIG1        0.0637
     71 H          -6.5287    7.5006   -5.1660 H       1  LIG1        0.0618
     72 H          -9.7686    1.6492   -5.5998 H       1  LIG1        0.0252
     73 H         -10.9826    2.6409   -6.4282 H       1  LIG1        0.0252
     74 H         -11.0921    2.3517   -4.6752 H       1  LIG1        0.0252
     75 H          -2.3353    3.0777   -4.3805 H       1  LIG1        0.1753
     76 H          -4.0759    7.6110   -5.5262 H       1  LIG1        0.0618
     77 H          -2.3016    0.8576   -3.9024 H       1  LIG1        0.0280
     78 H          -1.7944    0.1785   -2.3452 H       1  LIG1        0.0280
     79 H          -0.9506   -0.2719   -3.8407 H       1  LIG1        0.0280
     80 H           1.1856   -0.4816   -2.3303 H       1  LIG1        0.0309
     81 H           2.1096    0.6163   -1.2944 H       1  LIG1        0.0309
     82 H           2.5569    0.4149   -3.0015 H       1  LIG1        0.0309
@<TRIPOS>BOND
     1     1     5    1
     2     1     4    1
     3     1     2    1
     4     1     3    1
     5     2     6   am
     6     2     7    2
     7     3     8    2
     8     4     9    1
     9     5    10    1
    10     6     8    1
    11     6    11    1
    12     8    12    1
    13     9    10    1
    14    11    13    1
    15    12    14    1
    16    13    15   ar
    17    13    16   ar
    18    14    17    1
    19    15    18   ar
    20    16    19   ar
    21    17    20    1
    22    18    21   ar
    23    18    22    1
    24    19    21   ar
    25    21    23    1
    26    22    24    1
    27    23    26   ar
    28    23    25   ar
    29    24    27    1
    30    25    29   ar
    31    25    28    1
    32    26    30   ar
    33    27    31    1
    34    28    34    2
    35    28    33    2
    36    28    32    1
    37    29    35   ar
    38    30    35   ar
    39    32    36    1
    40    36    37   ar
    41    36    38   ar
    42    37    39   ar
    43    37    40    1
    44    38    41   ar
    45    39    41   ar
    46    39    42    1
    47     4    43    1
    48     4    44    1
    49     5    45    1
    50     5    46    1
    51     9    47    1
    52     9    48    1
    53    10    49    1
    54    10    50    1
    55    11    51    1
    56    11    52    1
    57    12    53    1
    58    12    54    1
    59    14    55    1
    60    14    56    1
    61    15    57    1
    62    16    58    1
    63    17    59    1
    64    17    60    1
    65    19    61    1
    66    20    62    1
    67    20    63    1
    68    20    64    1
    69    22    65    1
    70    22    66    1
    71    26    67    1
    72    27    68    1
    73    27    69    1
    74    29    70    1
    75    30    71    1
    76    31    72    1
    77    31    73    1
    78    31    74    1
    79    32    75    1
    80    35    76    1
    81    40    77    1
    82    40    78    1
    83    40    79    1
    84    42    80    1
    85    42    81    1
    86    42    82    1
@<TRIPOS>MOLECULE
02228316B
 82 86 0 0 0
SMALL
GASTEIGER

@<TRIPOS>ATOM
      1 C         -11.2236    1.6793    2.0766 C.3     1  LIG1        0.2491
      2 C          -9.7724    2.0679    1.8987 C.2     1  LIG1        0.3556
      3 N         -11.2708    0.2799    1.5860 N.2     1  LIG1       -0.0687
      4 C         -11.7084    1.7565    3.5270 C.3     1  LIG1        0.0059
      5 C         -12.1647    2.5526    1.2429 C.3     1  LIG1        0.0059
      6 N          -9.2069    1.0705    1.1584 N.am    1  LIG1       -0.1529
      7 O          -9.2230    3.0542    2.3660 O.2     1  LIG1       -0.2422
      8 C         -10.0919    0.0571    1.0903 C.cat   1  LIG1        0.2916
      9 C         -12.8259    2.7957    3.5178 C.3     1  LIG1       -0.0481
     10 C         -13.4026    2.7021    2.1156 C.3     1  LIG1       -0.0481
     11 C          -7.7885    1.0631    0.8482 C.3     1  LIG1        0.1137
     12 C          -9.7180   -1.2675    0.4635 C.3     1  LIG1        0.0509
     13 C          -7.3782    2.1425   -0.1264 C.ar    1  LIG1       -0.0073
     14 C         -10.7590   -2.3762    0.6356 C.3     1  LIG1       -0.0424
     15 C          -7.7491    2.0762   -1.4729 C.ar    1  LIG1       -0.0491
     16 C          -6.5951    3.2196    0.2928 C.ar    1  LIG1       -0.0544
     17 C         -11.9748   -2.2208   -0.2814 C.3     1  LIG1       -0.0554
     18 C          -7.2836    3.0209   -2.4163 C.ar    1  LIG1       -0.0138
     19 C          -6.1240    4.1607   -0.6280 C.ar    1  LIG1       -0.0533
     20 C         -12.9671   -3.3562   -0.0748 C.3     1  LIG1       -0.0653
     21 C          -6.3915    4.0458   -2.0041 C.ar    1  LIG1       -0.0106
     22 C          -7.7939    2.8823   -3.8383 C.3     1  LIG1        0.0732
     23 C          -5.7477    4.9800   -2.9576 C.ar    1  LIG1        0.0091
     24 O          -6.8007    2.4986   -4.7800 O.3     1  LIG1       -0.3754
     25 C          -4.3615    5.0406   -3.2325 C.ar    1  LIG1        0.1162
     26 C          -6.5688    5.8874   -3.6620 C.ar    1  LIG1       -0.0521
     27 C          -6.3807    1.1395   -4.7026 C.3     1  LIG1        0.0453
     28 S          -3.1139    4.1825   -2.2650 S.O2    1  LIG1        0.0741
     29 C          -3.8577    5.8981   -4.2344 C.ar    1  LIG1       -0.0345
     30 C          -6.0639    6.7448   -4.6449 C.ar    1  LIG1       -0.0611
     31 C          -7.4876    0.1570   -5.0530 C.3     1  LIG1       -0.0416
     32 N          -2.9235    5.3364   -1.0346 N.pl3   1  LIG1       -0.1965
     33 O          -3.6431    2.9543   -1.7194 O.2     1  LIG1       -0.1499
     34 O          -1.8948    4.1676   -3.0489 O.2     1  LIG1       -0.1499
     35 C          -4.7096    6.7369   -4.9446 C.ar    1  LIG1       -0.0599
     36 C          -1.7723    5.3303   -0.2568 C.ar    1  LIG1        0.1837
     37 C          -1.3138    4.3498    0.6557 C.ar    1  LIG1        0.0342
     38 N          -1.0156    6.4291   -0.2286 N.ar    1  LIG1       -0.0614
     39 C          -0.1679    4.9161    1.1800 C.ar    1  LIG1        0.1390
     40 C          -1.9266    3.0531    1.0150 C.3     1  LIG1       -0.0330
     41 O           0.0146    6.1517    0.6453 O.2     1  LIG1       -0.3578
     42 C           0.8392    4.4994    2.1742 C.3     1  LIG1       -0.0034
     43 H         -10.9229    2.0422    4.2350 H       1  LIG1        0.0316
     44 H         -12.1110    0.7918    3.8584 H       1  LIG1        0.0316
     45 H         -12.4144    2.1151    0.2704 H       1  LIG1        0.0316
     46 H         -11.7250    3.5409    1.0585 H       1  LIG1        0.0316
     47 H         -12.4090    3.7957    3.6869 H       1  LIG1        0.0267
     48 H         -13.5754    2.6045    4.2910 H       1  LIG1        0.0267
     49 H         -14.0401    1.8146    2.0247 H       1  LIG1        0.0267
     50 H         -13.9959    3.5807    1.8477 H       1  LIG1        0.0267
     51 H          -7.4891    0.0956    0.4348 H       1  LIG1        0.0783
     52 H          -7.2418    1.1823    1.7923 H       1  LIG1        0.0783
     53 H          -8.7906   -1.6061    0.9403 H       1  LIG1        0.0387
     54 H          -9.4999   -1.1014   -0.5973 H       1  LIG1        0.0387
     55 H         -11.0848   -2.4268    1.6820 H       1  LIG1        0.0271
     56 H         -10.2760   -3.3354    0.4106 H       1  LIG1        0.0271
     57 H          -8.3983    1.2668   -1.8035 H       1  LIG1        0.0625
     58 H          -6.3236    3.3289    1.3410 H       1  LIG1        0.0622
     59 H         -11.6522   -2.2102   -1.3286 H       1  LIG1        0.0263
     60 H         -12.4863   -1.2716   -0.0932 H       1  LIG1        0.0263
     61 H          -5.5027    4.9711   -0.2538 H       1  LIG1        0.0624
     62 H         -12.5133   -4.3228   -0.3156 H       1  LIG1        0.0230
     63 H         -13.8400   -3.2203   -0.7208 H       1  LIG1        0.0230
     64 H         -13.3155   -3.3895    0.9628 H       1  LIG1        0.0230
     65 H          -8.2088    3.8401   -4.1664 H       1  LIG1        0.0610
     66 H          -8.6530    2.2037   -3.8868 H       1  LIG1        0.0610
     67 H          -7.6372    5.9250   -3.4524 H       1  LIG1        0.0624
     68 H          -5.9545    0.9236   -3.7179 H       1  LIG1        0.0557
     69 H          -5.5732    1.0268   -5.4336 H       1  LIG1        0.0557
     70 H          -2.7917    5.9322   -4.4577 H       1  LIG1        0.0637
     71 H          -6.7360    7.4096   -5.1820 H       1  LIG1        0.0618
     72 H          -8.2245    0.0861   -4.2467 H       1  LIG1        0.0252
     73 H          -7.0778   -0.8446   -5.2114 H       1  LIG1        0.0252
     74 H          -8.0221    0.4721   -5.9550 H       1  LIG1        0.0252
     75 H          -3.0749    6.2727   -1.4100 H       1  LIG1        0.1753
     76 H          -4.3132    7.3931   -5.7157 H       1  LIG1        0.0618
     77 H          -3.0115    3.0745    0.8772 H       1  LIG1        0.0280
     78 H          -1.7449    2.8156    2.0686 H       1  LIG1        0.0280
     79 H          -1.5081    2.2479    0.4046 H       1  LIG1        0.0280
     80 H           0.5648    3.5546    2.6517 H       1  LIG1        0.0309
     81 H           0.9398    5.2572    2.9581 H       1  LIG1        0.0309
     82 H           1.8151    4.3693    1.6963 H       1  LIG1        0.0309
@<TRIPOS>BOND
     1     1     5    1
     2     1     4    1
     3     1     2    1
     4     1     3    1
     5     2     6   am
     6     2     7    2
     7     3     8    2
     8     4     9    1
     9     5    10    1
    10     6     8    1
    11     6    11    1
    12     8    12    1
    13     9    10    1
    14    11    13    1
    15    12    14    1
    16    13    15   ar
    17    13    16   ar
    18    14    17    1
    19    15    18   ar
    20    16    19   ar
    21    17    20    1
    22    18    21   ar
    23    18    22    1
    24    19    21   ar
    25    21    23    1
    26    22    24    1
    27    23    26   ar
    28    23    25   ar
    29    24    27    1
    30    25    29   ar
    31    25    28    1
    32    26    30   ar
    33    27    31    1
    34    28    34    2
    35    28    33    2
    36    28    32    1
    37    29    35   ar
    38    30    35   ar
    39    32    36    1
    40    36    37   ar
    41    36    38   ar
    42    37    39   ar
    43    37    40    1
    44    38    41   ar
    45    39    41   ar
    46    39    42    1
    47     4    43    1
    48     4    44    1
    49     5    45    1
    50     5    46    1
    51     9    47    1
    52     9    48    1
    53    10    49    1
    54    10    50    1
    55    11    51    1
    56    11    52    1
    57    12    53    1
    58    12    54    1
    59    14    55    1
    60    14    56    1
    61    15    57    1
    62    16    58    1
    63    17    59    1
    64    17    60    1
    65    19    61    1
    66    20    62    1
    67    20    63    1
    68    20    64    1
    69    22    65    1
    70    22    66    1
    71    26    67    1
    72    27    68    1
    73    27    69    1
    74    29    70    1
    75    30    71    1
    76    31    72    1
    77    31    73    1
    78    31    74    1
    79    32    75    1
    80    35    76    1
    81    40    77    1
    82    40    78    1
    83    40    79    1
    84    42    80    1
    85    42    81    1
    86    42    82    1
