@<TRIPOS>MOLECULE
01479498K
 57 61 0 0 0
SMALL
GASTEIGER

@<TRIPOS>ATOM
      1 C           3.2167    0.4282   -0.7211 C.3     1  LIG1        0.1526
      2 C           2.9937   -1.0168   -0.3929 C.2     1  LIG1        0.0278
      3 C           2.9512    0.8383   -2.1726 C.ar    1  LIG1        0.0009
      4 O           2.4565    1.3405    0.1124 O.3     1  LIG1       -0.4789
      5 C           1.8895   -1.4815    0.2223 C.2     1  LIG1        0.0016
      6 C           4.1744   -1.8988   -0.7772 C.2     1  LIG1        0.0721
      7 C           3.6164    1.9635   -2.6968 C.ar    1  LIG1       -0.0091
      8 C           2.0005    0.1685   -2.9827 C.ar    1  LIG1       -0.0511
      9 C           1.2092    0.9009    0.4623 C.ar    1  LIG1        0.1298
     10 C           0.8705   -0.4516    0.5276 C.ar    1  LIG1        0.0283
     11 C           1.7427   -2.9193    0.5247 C.ar    1  LIG1       -0.0165
     12 O           5.1710   -1.8145   -0.0033 O.co2   1  LIG1       -0.5448
     13 O           4.0347   -2.5455   -1.8536 O.co2   1  LIG1       -0.5448
     14 C           3.3195    2.3618   -3.9837 C.ar    1  LIG1        0.1666
     15 C           1.7172    0.5969   -4.2835 C.ar    1  LIG1       -0.0158
     16 C           0.2760    1.8849    0.7842 C.ar    1  LIG1       -0.0158
     17 C          -0.4394   -0.7901    0.9011 C.ar    1  LIG1       -0.0087
     18 C           2.0256   -3.4012    1.8063 C.ar    1  LIG1       -0.0505
     19 C           1.2774   -3.8062   -0.4500 C.ar    1  LIG1       -0.0505
     20 C           2.3940    1.6980   -4.7543 C.ar    1  LIG1        0.1662
     21 O           3.8678    3.4247   -4.6337 O.3     1  LIG1       -0.4526
     22 C          -1.0247    1.5300    1.1508 C.ar    1  LIG1       -0.0164
     23 C          -1.3897    0.1902    1.2190 C.ar    1  LIG1        0.1217
     24 C           1.8202   -4.7502    2.1193 C.ar    1  LIG1       -0.0194
     25 C           1.0695   -5.1512   -0.1352 C.ar    1  LIG1       -0.0194
     26 O           2.2427    2.2577   -5.9853 O.3     1  LIG1       -0.4526
     27 C           3.2059    3.3266   -5.9099 C.3     1  LIG1        0.2332
     28 O          -2.6147   -0.3094    1.5435 O.3     1  LIG1       -0.4893
     29 C           1.3270   -5.6284    1.1521 C.ar    1  LIG1        0.1201
     30 C          -3.6084    0.4377    2.2483 C.3     1  LIG1        0.0946
     31 O           1.0607   -6.9593    1.3341 O.3     1  LIG1       -0.4951
     32 C          -3.1286    1.0603    3.5569 C.3     1  LIG1       -0.0281
     33 C          -4.3899    1.3876    1.3466 C.3     1  LIG1       -0.0281
     34 C           1.2541   -7.4713    2.6448 C.3     1  LIG1        0.0788
     35 H           4.2655    0.6662   -0.4985 H       1  LIG1        0.0837
     36 H           4.3423    2.5088   -2.1036 H       1  LIG1        0.0659
     37 H           1.4810   -0.7076   -2.5984 H       1  LIG1        0.0623
     38 H           0.9937    0.0726   -4.8954 H       1  LIG1        0.0655
     39 H           0.5628    2.9310    0.7287 H       1  LIG1        0.0655
     40 H          -0.7360   -1.8355    0.9500 H       1  LIG1        0.0661
     41 H           2.4197   -2.7243    2.5606 H       1  LIG1        0.0625
     42 H           1.0963   -3.4522   -1.4621 H       1  LIG1        0.0625
     43 H          -1.7180    2.3314    1.3627 H       1  LIG1        0.0655
     44 H           2.0653   -5.0774    3.1227 H       1  LIG1        0.0654
     45 H           0.7146   -5.8293   -0.9055 H       1  LIG1        0.0654
     46 H           3.9629    3.1711   -6.6875 H       1  LIG1        0.1166
     47 H           2.6912    4.2736   -6.1090 H       1  LIG1        0.1166
     48 H          -4.3317   -0.3321    2.5488 H       1  LIG1        0.0727
     49 H          -2.5188    1.9530    3.3997 H       1  LIG1        0.0265
     50 H          -2.5214    0.3462    4.1232 H       1  LIG1        0.0265
     51 H          -3.9820    1.3581    4.1749 H       1  LIG1        0.0265
     52 H          -3.7950    2.2384    1.0094 H       1  LIG1        0.0265
     53 H          -5.2664    1.7836    1.8699 H       1  LIG1        0.0265
     54 H          -4.7302    0.8639    0.4468 H       1  LIG1        0.0265
     55 H           0.9636   -8.5264    2.6369 H       1  LIG1        0.0660
     56 H           0.6133   -6.9579    3.3697 H       1  LIG1        0.0660
     57 H           2.3074   -7.4184    2.9388 H       1  LIG1        0.0660
@<TRIPOS>BOND
     1     1     4    1
     2     1     2    1
     3     1     3    1
     4     2     5    2
     5     2     6    1
     6     3     8   ar
     7     3     7   ar
     8     4     9    1
     9     5    10    1
    10     5    11    1
    11     6    13   ar
    12     6    12   ar
    13     7    14   ar
    14     8    15   ar
    15     9    16   ar
    16     9    10   ar
    17    10    17   ar
    18    11    18   ar
    19    11    19   ar
    20    14    21    1
    21    14    20   ar
    22    15    20   ar
    23    16    22   ar
    24    17    23   ar
    25    18    24   ar
    26    19    25   ar
    27    20    26    1
    28    21    27    1
    29    22    23   ar
    30    23    28    1
    31    24    29   ar
    32    25    29   ar
    33    26    27    1
    34    28    30    1
    35    29    31    1
    36    30    33    1
    37    30    32    1
    38    31    34    1
    39     1    35    1
    40     7    36    1
    41     8    37    1
    42    15    38    1
    43    16    39    1
    44    17    40    1
    45    18    41    1
    46    19    42    1
    47    22    43    1
    48    24    44    1
    49    25    45    1
    50    27    46    1
    51    27    47    1
    52    30    48    1
    53    32    49    1
    54    32    50    1
    55    32    51    1
    56    33    52    1
    57    33    53    1
    58    33    54    1
    59    34    55    1
    60    34    56    1
    61    34    57    1
@<TRIPOS>MOLECULE
01479498K
 57 61 0 0 0
SMALL
GASTEIGER

@<TRIPOS>ATOM
      1 C           3.2185    0.5077   -0.5599 C.3     1  LIG1        0.1526
      2 C           3.1043   -0.9571   -0.2532 C.2     1  LIG1        0.0278
      3 C           2.9389    0.9260   -2.0119 C.ar    1  LIG1        0.0009
      4 O           2.3710    1.3155    0.3000 O.3     1  LIG1       -0.4789
      5 C           1.9737   -1.5304    0.2095 C.2     1  LIG1        0.0016
      6 C           4.4243   -1.6941   -0.4609 C.2     1  LIG1        0.0721
      7 C           3.1106    2.2778   -2.3729 C.ar    1  LIG1       -0.0091
      8 C           2.4881    0.0136   -2.9980 C.ar    1  LIG1       -0.0511
      9 C           1.1179    0.7963    0.4884 C.ar    1  LIG1        0.1298
     10 C           0.8528   -0.5748    0.4224 C.ar    1  LIG1        0.0283
     11 C           1.9020   -2.9881    0.4791 C.ar    1  LIG1       -0.0165
     12 O           5.2324   -1.6172    0.5073 O.co2   1  LIG1       -0.5448
     13 O           4.5663   -2.2225   -1.5996 O.co2   1  LIG1       -0.5448
     14 C           2.8216    2.6575   -3.6674 C.ar    1  LIG1        0.1666
     15 C           2.2002    0.4268   -4.3037 C.ar    1  LIG1       -0.0158
     16 C           0.1055    1.7058    0.7797 C.ar    1  LIG1       -0.0158
     17 C          -0.4721   -1.0132    0.6003 C.ar    1  LIG1       -0.0087
     18 C           1.5487   -3.4557    1.7510 C.ar    1  LIG1       -0.0505
     19 C           2.1157   -3.9230   -0.5410 C.ar    1  LIG1       -0.0505
     20 C           2.3753    1.7570   -4.6056 C.ar    1  LIG1        0.1662
     21 O           2.9272    3.9184   -4.1695 O.3     1  LIG1       -0.4526
     22 C          -1.1974    1.2487    0.9708 C.ar    1  LIG1       -0.0164
     23 C          -1.4995   -0.1135    0.8785 C.ar    1  LIG1        0.1217
     24 C           1.4178   -4.8271    1.9932 C.ar    1  LIG1       -0.0194
     25 C           2.0088   -5.2958   -0.2942 C.ar    1  LIG1       -0.0194
     26 O           2.1429    2.3353   -5.8149 O.3     1  LIG1       -0.4526
     27 C           2.5118    3.6987   -5.5317 C.3     1  LIG1        0.2332
     28 O          -2.8153   -0.3994    1.0844 O.3     1  LIG1       -0.4893
     29 C           1.6684   -5.7514    0.9784 C.ar    1  LIG1        0.1201
     30 C          -3.3463   -1.7270    1.1087 C.3     1  LIG1        0.0946
     31 O           1.5263   -7.0674    1.3299 O.3     1  LIG1       -0.4951
     32 C          -3.3467   -2.4130   -0.2541 C.3     1  LIG1       -0.0281
     33 C          -2.8241   -2.5860    2.2571 C.3     1  LIG1       -0.0281
     34 C           2.3189   -7.9773    0.5734 C.3     1  LIG1        0.0788
     35 H           4.2409    0.8355   -0.3289 H       1  LIG1        0.0837
     36 H           3.4531    3.0074   -1.6468 H       1  LIG1        0.0659
     37 H           2.3687   -1.0411   -2.7541 H       1  LIG1        0.0623
     38 H           1.8589   -0.2830   -5.0466 H       1  LIG1        0.0655
     39 H           0.3324    2.7651    0.8440 H       1  LIG1        0.0655
     40 H          -0.6657   -2.0729    0.5140 H       1  LIG1        0.0661
     41 H           1.3793   -2.7506    2.5611 H       1  LIG1        0.0625
     42 H           2.3929   -3.5854   -1.5387 H       1  LIG1        0.0625
     43 H          -1.9868    1.9624    1.1901 H       1  LIG1        0.0655
     44 H           1.1440   -5.1734    2.9849 H       1  LIG1        0.0654
     45 H           2.1991   -5.9734   -1.1184 H       1  LIG1        0.0654
     46 H           3.3331    3.9841   -6.1993 H       1  LIG1        0.1166
     47 H           1.6510    4.3439   -5.7425 H       1  LIG1        0.1166
     48 H          -4.4069   -1.5625    1.3412 H       1  LIG1        0.0727
     49 H          -2.3517   -2.7288   -0.5735 H       1  LIG1        0.0265
     50 H          -3.7274   -1.7325   -1.0232 H       1  LIG1        0.0265
     51 H          -3.9810   -3.3054   -0.2349 H       1  LIG1        0.0265
     52 H          -1.7984   -2.9266    2.1032 H       1  LIG1        0.0265
     53 H          -3.4460   -3.4787    2.3822 H       1  LIG1        0.0265
     54 H          -2.8365   -2.0196    3.1944 H       1  LIG1        0.0265
     55 H           2.2861   -8.9468    1.0797 H       1  LIG1        0.0660
     56 H           3.3665   -7.6590    0.5309 H       1  LIG1        0.0660
     57 H           1.9074   -8.1155   -0.4313 H       1  LIG1        0.0660
@<TRIPOS>BOND
     1     1     4    1
     2     1     2    1
     3     1     3    1
     4     2     5    2
     5     2     6    1
     6     3     8   ar
     7     3     7   ar
     8     4     9    1
     9     5    10    1
    10     5    11    1
    11     6    13   ar
    12     6    12   ar
    13     7    14   ar
    14     8    15   ar
    15     9    16   ar
    16     9    10   ar
    17    10    17   ar
    18    11    18   ar
    19    11    19   ar
    20    14    21    1
    21    14    20   ar
    22    15    20   ar
    23    16    22   ar
    24    17    23   ar
    25    18    24   ar
    26    19    25   ar
    27    20    26    1
    28    21    27    1
    29    22    23   ar
    30    23    28    1
    31    24    29   ar
    32    25    29   ar
    33    26    27    1
    34    28    30    1
    35    29    31    1
    36    30    33    1
    37    30    32    1
    38    31    34    1
    39     1    35    1
    40     7    36    1
    41     8    37    1
    42    15    38    1
    43    16    39    1
    44    17    40    1
    45    18    41    1
    46    19    42    1
    47    22    43    1
    48    24    44    1
    49    25    45    1
    50    27    46    1
    51    27    47    1
    52    30    48    1
    53    32    49    1
    54    32    50    1
    55    32    51    1
    56    33    52    1
    57    33    53    1
    58    33    54    1
    59    34    55    1
    60    34    56    1
    61    34    57    1
@<TRIPOS>MOLECULE
01479498K
 57 61 0 0 0
SMALL
GASTEIGER

@<TRIPOS>ATOM
      1 C           3.1547    0.4982   -0.6746 C.3     1  LIG1        0.1526
      2 C           2.9418   -0.9656   -0.4333 C.2     1  LIG1        0.0278
      3 C           2.8541    0.9422   -2.1144 C.ar    1  LIG1        0.0009
      4 O           2.4519    1.3531    0.2673 O.3     1  LIG1       -0.4789
      5 C           1.8637   -1.4647    0.2016 C.2     1  LIG1        0.0016
      6 C           4.1216   -1.8181   -0.8862 C.2     1  LIG1        0.0721
      7 C           3.8777    0.8860   -3.0801 C.ar    1  LIG1       -0.0091
      8 C           1.5683    1.3868   -2.5180 C.ar    1  LIG1       -0.0511
      9 C           1.2246    0.8931    0.6647 C.ar    1  LIG1        0.1298
     10 C           0.8642   -0.4539    0.6112 C.ar    1  LIG1        0.0283
     11 C           1.7390   -2.9147    0.4612 C.ar    1  LIG1       -0.0165
     12 O           5.1790   -1.6572   -0.2156 O.co2   1  LIG1       -0.5448
     13 O           3.9212   -2.5061   -1.9280 O.co2   1  LIG1       -0.5448
     14 C           3.5928    1.2938   -4.3686 C.ar    1  LIG1        0.1666
     15 C           1.3066    1.7970   -3.8283 C.ar    1  LIG1       -0.0158
     16 C           0.3119    1.8652    1.0696 C.ar    1  LIG1       -0.0158
     17 C          -0.4558   -0.7981    0.9424 C.ar    1  LIG1       -0.0087
     18 C           2.1356   -3.4507    1.6899 C.ar    1  LIG1       -0.0505
     19 C           1.1885   -3.7611   -0.5061 C.ar    1  LIG1       -0.0505
     20 C           2.3424    1.7398   -4.7294 C.ar    1  LIG1        0.1662
     21 O           4.4661    1.3141   -5.4111 O.3     1  LIG1       -0.4526
     22 C          -1.0019    1.5072    1.3733 C.ar    1  LIG1       -0.0164
     23 C          -1.3950    0.1739    1.3160 C.ar    1  LIG1        0.1217
     24 C           1.9507   -4.8107    1.9555 C.ar    1  LIG1       -0.0194
     25 C           0.9971   -5.1207   -0.2362 C.ar    1  LIG1       -0.0194
     26 O           2.2698    2.0949   -6.0405 O.3     1  LIG1       -0.4526
     27 C           3.6080    1.7755   -6.4711 C.3     1  LIG1        0.2332
     28 O          -2.6429   -0.3187    1.5563 O.3     1  LIG1       -0.4893
     29 C           1.3584   -5.6462    1.0053 C.ar    1  LIG1        0.1201
     30 C          -3.6509    0.4128    2.2580 C.3     1  LIG1        0.0946
     31 O           1.2026   -6.9498    1.3962 O.3     1  LIG1       -0.4951
     32 C          -3.2122    0.9585    3.6149 C.3     1  LIG1       -0.0281
     33 C          -4.3764    1.4221    1.3730 C.3     1  LIG1       -0.0281
     34 C           0.3071   -7.7294    0.6141 C.3     1  LIG1        0.0788
     35 H           4.2072    0.7424   -0.4786 H       1  LIG1        0.0837
     36 H           4.8647    0.5089   -2.8272 H       1  LIG1        0.0659
     37 H           0.7463    1.4105   -1.8105 H       1  LIG1        0.0623
     38 H           0.3209    2.1363   -4.1209 H       1  LIG1        0.0655
     39 H           0.6170    2.9069    1.0944 H       1  LIG1        0.0655
     40 H          -0.7727   -1.8376    0.8941 H       1  LIG1        0.0661
     41 H           2.5999   -2.8114    2.4363 H       1  LIG1        0.0625
     42 H           0.9305   -3.3605   -1.4841 H       1  LIG1        0.0625
     43 H          -1.6864    2.3046    1.6245 H       1  LIG1        0.0655
     44 H           2.2700   -5.2176    2.9103 H       1  LIG1        0.0654
     45 H           0.5860   -5.7383   -1.0258 H       1  LIG1        0.0654
     46 H           3.5502    0.9992   -7.2430 H       1  LIG1        0.1166
     47 H           4.0524    2.6746   -6.9127 H       1  LIG1        0.1166
     48 H          -4.4006   -0.3545    2.4924 H       1  LIG1        0.0727
     49 H          -2.6088    1.8652    3.5314 H       1  LIG1        0.0265
     50 H          -2.6145    0.2160    4.1539 H       1  LIG1        0.0265
     51 H          -4.0850    1.2132    4.2246 H       1  LIG1        0.0265
     52 H          -3.7202    2.2083    0.9949 H       1  LIG1        0.0265
     53 H          -5.1976    1.8994    1.9174 H       1  LIG1        0.0265
     54 H          -4.7933    0.9191    0.4933 H       1  LIG1        0.0265
     55 H           0.1760   -8.6922    1.1177 H       1  LIG1        0.0660
     56 H           0.7196   -7.9289   -0.3799 H       1  LIG1        0.0660
     57 H          -0.6781   -7.2549    0.5462 H       1  LIG1        0.0660
@<TRIPOS>BOND
     1     1     4    1
     2     1     2    1
     3     1     3    1
     4     2     5    2
     5     2     6    1
     6     3     8   ar
     7     3     7   ar
     8     4     9    1
     9     5    10    1
    10     5    11    1
    11     6    13   ar
    12     6    12   ar
    13     7    14   ar
    14     8    15   ar
    15     9    16   ar
    16     9    10   ar
    17    10    17   ar
    18    11    18   ar
    19    11    19   ar
    20    14    21    1
    21    14    20   ar
    22    15    20   ar
    23    16    22   ar
    24    17    23   ar
    25    18    24   ar
    26    19    25   ar
    27    20    26    1
    28    21    27    1
    29    22    23   ar
    30    23    28    1
    31    24    29   ar
    32    25    29   ar
    33    26    27    1
    34    28    30    1
    35    29    31    1
    36    30    33    1
    37    30    32    1
    38    31    34    1
    39     1    35    1
    40     7    36    1
    41     8    37    1
    42    15    38    1
    43    16    39    1
    44    17    40    1
    45    18    41    1
    46    19    42    1
    47    22    43    1
    48    24    44    1
    49    25    45    1
    50    27    46    1
    51    27    47    1
    52    30    48    1
    53    32    49    1
    54    32    50    1
    55    32    51    1
    56    33    52    1
    57    33    53    1
    58    33    54    1
    59    34    55    1
    60    34    56    1
    61    34    57    1
@<TRIPOS>MOLECULE
01479498K
 57 61 0 0 0
SMALL
GASTEIGER

@<TRIPOS>ATOM
      1 C           3.1196    0.5175   -0.7081 C.3     1  LIG1        0.1526
      2 C           2.8989   -0.9469   -0.4740 C.2     1  LIG1        0.0278
      3 C           2.8597    0.9590   -2.1550 C.ar    1  LIG1        0.0009
      4 O           2.3941    1.3822    0.2055 O.3     1  LIG1       -0.4789
      5 C           1.8268   -1.4494    0.1680 C.2     1  LIG1        0.0016
      6 C           4.0682   -1.8014   -0.9574 C.2     1  LIG1        0.0721
      7 C           3.9163    0.9273   -3.0858 C.ar    1  LIG1       -0.0091
      8 C           1.5759    1.3667   -2.5990 C.ar    1  LIG1       -0.0511
      9 C           1.1877    0.9075    0.6415 C.ar    1  LIG1        0.1298
     10 C           0.8366   -0.4417    0.6064 C.ar    1  LIG1        0.0283
     11 C           1.7052   -2.9010    0.4179 C.ar    1  LIG1       -0.0165
     12 O           5.1356   -1.6503   -0.2942 O.co2   1  LIG1       -0.5448
     13 O           3.8561   -2.4751   -2.0021 O.co2   1  LIG1       -0.5448
     14 C           3.6612    1.3156   -4.3854 C.ar    1  LIG1        0.1666
     15 C           1.3465    1.7600   -3.9212 C.ar    1  LIG1       -0.0158
     16 C           0.2845    1.8671    1.0973 C.ar    1  LIG1       -0.0158
     17 C          -0.4628   -0.7982    1.0001 C.ar    1  LIG1       -0.0087
     18 C           2.0096   -3.4260    1.6772 C.ar    1  LIG1       -0.0505
     19 C           1.2496   -3.7609   -0.5859 C.ar    1  LIG1       -0.0505
     20 C           2.4114    1.7226   -4.7899 C.ar    1  LIG1        0.1662
     21 O           4.5668    1.3484   -5.4010 O.3     1  LIG1       -0.4526
     22 C          -1.0068    1.4953    1.4778 C.ar    1  LIG1       -0.0164
     23 C          -1.3930    0.1607    1.4269 C.ar    1  LIG1        0.1217
     24 C           1.8446   -4.7913    1.9283 C.ar    1  LIG1       -0.0194
     25 C           1.0845   -5.1274   -0.3333 C.ar    1  LIG1       -0.0194
     26 O           2.3713    2.0594   -6.1076 O.3     1  LIG1       -0.4526
     27 C           3.7263    1.7558   -6.4961 C.3     1  LIG1        0.2332
     28 O          -2.6158   -0.3547    1.7327 O.3     1  LIG1       -0.4893
     29 C           1.3770   -5.6480    0.9283 C.ar    1  LIG1        0.1201
     30 C          -3.6634    0.3919    2.3538 C.3     1  LIG1        0.0946
     31 O           1.2510   -6.9586    1.3060 O.3     1  LIG1       -0.4951
     32 C          -3.2956    0.9652    3.7192 C.3     1  LIG1       -0.0281
     33 C          -4.3460    1.3795    1.4122 C.3     1  LIG1       -0.0281
     34 C           0.8444   -7.8706    0.2946 C.3     1  LIG1        0.0788
     35 H           4.1670    0.7566   -0.4825 H       1  LIG1        0.0837
     36 H           4.9044    0.5778   -2.7989 H       1  LIG1        0.0659
     37 H           0.7347    1.3691   -1.9126 H       1  LIG1        0.0623
     38 H           0.3620    2.0684   -4.2493 H       1  LIG1        0.0655
     39 H           0.5817    2.9117    1.1194 H       1  LIG1        0.0655
     40 H          -0.7709   -1.8411    0.9646 H       1  LIG1        0.0661
     41 H           2.3899   -2.7741    2.4593 H       1  LIG1        0.0625
     42 H           1.0512   -3.3662   -1.5806 H       1  LIG1        0.0625
     43 H          -1.6772    2.2840    1.7878 H       1  LIG1        0.0655
     44 H           2.0957   -5.1887    2.9072 H       1  LIG1        0.0654
     45 H           0.7418   -5.7497   -1.1513 H       1  LIG1        0.0654
     46 H           3.7042    0.9530   -7.2426 H       1  LIG1        0.1166
     47 H           4.1624    2.6491   -6.9573 H       1  LIG1        0.1166
     48 H          -4.4231   -0.3729    2.5635 H       1  LIG1        0.0727
     49 H          -2.6736    1.8601    3.6486 H       1  LIG1        0.0265
     50 H          -2.7392    0.2284    4.3081 H       1  LIG1        0.0265
     51 H          -4.1980    1.2445    4.2728 H       1  LIG1        0.0265
     52 H          -3.7024    2.2152    1.1308 H       1  LIG1        0.0265
     53 H          -5.2466    1.7961    1.8751 H       1  LIG1        0.0265
     54 H          -4.6350    0.8788    0.4817 H       1  LIG1        0.0265
     55 H           0.8211   -8.8713    0.7371 H       1  LIG1        0.0660
     56 H           1.5593   -7.8914   -0.5347 H       1  LIG1        0.0660
     57 H          -0.1667   -7.6417   -0.0585 H       1  LIG1        0.0660
@<TRIPOS>BOND
     1     1     4    1
     2     1     2    1
     3     1     3    1
     4     2     5    2
     5     2     6    1
     6     3     8   ar
     7     3     7   ar
     8     4     9    1
     9     5    10    1
    10     5    11    1
    11     6    13   ar
    12     6    12   ar
    13     7    14   ar
    14     8    15   ar
    15     9    16   ar
    16     9    10   ar
    17    10    17   ar
    18    11    18   ar
    19    11    19   ar
    20    14    21    1
    21    14    20   ar
    22    15    20   ar
    23    16    22   ar
    24    17    23   ar
    25    18    24   ar
    26    19    25   ar
    27    20    26    1
    28    21    27    1
    29    22    23   ar
    30    23    28    1
    31    24    29   ar
    32    25    29   ar
    33    26    27    1
    34    28    30    1
    35    29    31    1
    36    30    33    1
    37    30    32    1
    38    31    34    1
    39     1    35    1
    40     7    36    1
    41     8    37    1
    42    15    38    1
    43    16    39    1
    44    17    40    1
    45    18    41    1
    46    19    42    1
    47    22    43    1
    48    24    44    1
    49    25    45    1
    50    27    46    1
    51    27    47    1
    52    30    48    1
    53    32    49    1
    54    32    50    1
    55    32    51    1
    56    33    52    1
    57    33    53    1
    58    33    54    1
    59    34    55    1
    60    34    56    1
    61    34    57    1
@<TRIPOS>MOLECULE
01479498K
 57 61 0 0 0
SMALL
GASTEIGER

@<TRIPOS>ATOM
      1 C           3.1333    0.5713   -0.5428 C.3     1  LIG1        0.1526
      2 C           3.0208   -0.9100   -0.3041 C.2     1  LIG1        0.0278
      3 C           2.8279    1.0370   -1.9854 C.ar    1  LIG1        0.0009
      4 O           2.3207    1.3160    0.4090 O.3     1  LIG1       -0.4789
      5 C           1.8868   -1.5057    0.1207 C.2     1  LIG1        0.0016
      6 C           4.3620   -1.6360   -0.3835 C.2     1  LIG1        0.0721
      7 C           3.3388    0.3398   -3.0978 C.ar    1  LIG1       -0.0091
      8 C           2.0785    2.2199   -2.2304 C.ar    1  LIG1       -0.0511
      9 C           1.0666    0.7947    0.6013 C.ar    1  LIG1        0.1298
     10 C           0.7769   -0.5591    0.4059 C.ar    1  LIG1        0.0283
     11 C           1.8222   -2.9660    0.3812 C.ar    1  LIG1       -0.0165
     12 O           5.1176   -1.4500    0.6130 O.co2   1  LIG1       -0.5448
     13 O           4.5824   -2.2618   -1.4564 O.co2   1  LIG1       -0.5448
     14 C           3.0568    0.8061   -4.3673 C.ar    1  LIG1        0.1666
     15 C           1.8009    2.6679   -3.5277 C.ar    1  LIG1       -0.0158
     16 C           0.0828    1.6836    1.0300 C.ar    1  LIG1       -0.0158
     17 C          -0.5459   -0.9971    0.5914 C.ar    1  LIG1       -0.0087
     18 C           1.4932   -3.4386    1.6586 C.ar    1  LIG1       -0.0505
     19 C           2.0150   -3.8958   -0.6452 C.ar    1  LIG1       -0.0505
     20 C           2.3036    1.9353   -4.5761 C.ar    1  LIG1        0.1662
     21 O           3.4724    0.2409   -5.5337 O.3     1  LIG1       -0.4526
     22 C          -1.2175    1.2273    1.2360 C.ar    1  LIG1       -0.0164
     23 C          -1.5407   -0.1142    1.0197 C.ar    1  LIG1        0.1217
     24 C           1.3444   -4.8098    1.9028 C.ar    1  LIG1       -0.0194
     25 C           1.8795   -5.2655   -0.3986 C.ar    1  LIG1       -0.0194
     26 O           2.1431    2.2210   -5.8965 O.3     1  LIG1       -0.4526
     27 C           2.8853    1.1372   -6.4930 C.3     1  LIG1        0.2332
     28 O          -2.8447   -0.4283    1.2873 O.3     1  LIG1       -0.4893
     29 C           1.5366   -5.7302    0.8722 C.ar    1  LIG1        0.1201
     30 C          -3.2603   -1.7966    1.2208 C.3     1  LIG1        0.0946
     31 O           1.4169   -7.0901    0.9753 O.3     1  LIG1       -0.4951
     32 C          -2.8527   -2.5466    2.4879 C.3     1  LIG1       -0.0281
     33 C          -4.7840   -1.7770    1.1066 C.3     1  LIG1       -0.0281
     34 C           1.1436   -7.6079    2.2696 C.3     1  LIG1        0.0788
     35 H           4.1583    0.9037   -0.3340 H       1  LIG1        0.0837
     36 H           3.9455   -0.5527   -2.9843 H       1  LIG1        0.0659
     37 H           1.6982    2.8054   -1.3966 H       1  LIG1        0.0623
     38 H           1.2143    3.5621   -3.6974 H       1  LIG1        0.0655
     39 H           0.3327    2.7260    1.1993 H       1  LIG1        0.0655
     40 H          -0.7649   -2.0440    0.4163 H       1  LIG1        0.0661
     41 H           1.3531   -2.7326    2.4741 H       1  LIG1        0.0625
     42 H           2.2970   -3.5569   -1.6410 H       1  LIG1        0.0625
     43 H          -1.9829    1.9201    1.5739 H       1  LIG1        0.0655
     44 H           1.0847   -5.1178    2.9086 H       1  LIG1        0.0654
     45 H           2.0578   -5.9689   -1.2070 H       1  LIG1        0.0654
     46 H           2.2101    0.5658   -7.1406 H       1  LIG1        0.1166
     47 H           3.6846    1.5620   -7.1114 H       1  LIG1        0.1166
     48 H          -2.8741   -2.2891    0.3214 H       1  LIG1        0.0727
     49 H          -3.2286   -2.0360    3.3815 H       1  LIG1        0.0265
     50 H          -1.7649   -2.5955    2.5941 H       1  LIG1        0.0265
     51 H          -3.2376   -3.5711    2.4810 H       1  LIG1        0.0265
     52 H          -5.2362   -1.2659    1.9643 H       1  LIG1        0.0265
     53 H          -5.1925   -2.7904    1.0467 H       1  LIG1        0.0265
     54 H          -5.0923   -1.2229    0.2133 H       1  LIG1        0.0265
     55 H           1.1261   -8.6996    2.1957 H       1  LIG1        0.0660
     56 H           0.1589   -7.2835    2.6221 H       1  LIG1        0.0660
     57 H           1.9293   -7.3364    2.9825 H       1  LIG1        0.0660
@<TRIPOS>BOND
     1     1     4    1
     2     1     2    1
     3     1     3    1
     4     2     5    2
     5     2     6    1
     6     3     8   ar
     7     3     7   ar
     8     4     9    1
     9     5    10    1
    10     5    11    1
    11     6    13   ar
    12     6    12   ar
    13     7    14   ar
    14     8    15   ar
    15     9    16   ar
    16     9    10   ar
    17    10    17   ar
    18    11    18   ar
    19    11    19   ar
    20    14    21    1
    21    14    20   ar
    22    15    20   ar
    23    16    22   ar
    24    17    23   ar
    25    18    24   ar
    26    19    25   ar
    27    20    26    1
    28    21    27    1
    29    22    23   ar
    30    23    28    1
    31    24    29   ar
    32    25    29   ar
    33    26    27    1
    34    28    30    1
    35    29    31    1
    36    30    33    1
    37    30    32    1
    38    31    34    1
    39     1    35    1
    40     7    36    1
    41     8    37    1
    42    15    38    1
    43    16    39    1
    44    17    40    1
    45    18    41    1
    46    19    42    1
    47    22    43    1
    48    24    44    1
    49    25    45    1
    50    27    46    1
    51    27    47    1
    52    30    48    1
    53    32    49    1
    54    32    50    1
    55    32    51    1
    56    33    52    1
    57    33    53    1
    58    33    54    1
    59    34    55    1
    60    34    56    1
    61    34    57    1
@<TRIPOS>MOLECULE
01479498K
 57 61 0 0 0
SMALL
GASTEIGER

@<TRIPOS>ATOM
      1 C           3.1590    0.5189   -0.6704 C.3     1  LIG1        0.1526
      2 C           2.9285   -0.9459   -0.4424 C.2     1  LIG1        0.0278
      3 C           2.9405    0.9620   -2.1230 C.ar    1  LIG1        0.0009
      4 O           2.4157    1.3866    0.2254 O.3     1  LIG1       -0.4789
      5 C           1.8466   -1.4430    0.1854 C.2     1  LIG1        0.0016
      6 C           4.0961   -1.8093   -0.9132 C.2     1  LIG1        0.0721
      7 C           1.7034    1.4558   -2.5790 C.ar    1  LIG1       -0.0091
      8 C           4.0073    0.8451   -3.0504 C.ar    1  LIG1       -0.0511
      9 C           1.1990    0.9156    0.6356 C.ar    1  LIG1        0.1298
     10 C           0.8492   -0.4333    0.6024 C.ar    1  LIG1        0.0283
     11 C           1.7177   -2.8914    0.4474 C.ar    1  LIG1       -0.0165
     12 O           5.1678   -1.6375   -0.2632 O.co2   1  LIG1       -0.5448
     13 O           3.8828   -2.5072   -1.9425 O.co2   1  LIG1       -0.5448
     14 C           1.5872    1.8297   -3.8996 C.ar    1  LIG1        0.1666
     15 C           3.8578    1.2289   -4.3890 C.ar    1  LIG1       -0.0158
     16 C           0.2874    1.8772    1.0712 C.ar    1  LIG1       -0.0158
     17 C          -0.4544   -0.7890    0.9835 C.ar    1  LIG1       -0.0087
     18 C           2.0825   -3.4140    1.6917 C.ar    1  LIG1       -0.0505
     19 C           1.1823   -3.7454   -0.5211 C.ar    1  LIG1       -0.0505
     20 C           2.6351    1.7222   -4.7808 C.ar    1  LIG1        0.1662
     21 O           0.4647    2.3338   -4.4841 O.3     1  LIG1       -0.4526
     22 C          -1.0084    1.5063    1.4374 C.ar    1  LIG1       -0.0164
     23 C          -1.3905    0.1706    1.3948 C.ar    1  LIG1        0.1217
     24 C           1.8832   -4.7687    1.9701 C.ar    1  LIG1       -0.0194
     25 C           0.9787   -5.1009   -0.2392 C.ar    1  LIG1       -0.0194
     26 O           2.3099    2.1430   -6.0341 O.3     1  LIG1       -0.4526
     27 C           0.9240    2.4984   -5.8388 C.3     1  LIG1        0.2332
     28 O          -2.6142   -0.3455    1.6949 O.3     1  LIG1       -0.4893
     29 C           1.3120   -5.6143    1.0155 C.ar    1  LIG1        0.1201
     30 C          -3.6566    0.3952    2.3318 C.3     1  LIG1        0.0946
     31 O           1.1408   -6.9106    1.4235 O.3     1  LIG1       -0.4951
     32 C          -3.2747    0.9706    3.6928 C.3     1  LIG1       -0.0281
     33 C          -4.3552    1.3798    1.3990 C.3     1  LIG1       -0.0281
     34 C           0.3736   -7.7426    0.5637 C.3     1  LIG1        0.0788
     35 H           4.2011    0.7555   -0.4198 H       1  LIG1        0.0837
     36 H           0.8457    1.5406   -1.9241 H       1  LIG1        0.0659
     37 H           4.9572    0.4203   -2.7225 H       1  LIG1        0.0623
     38 H           4.6761    1.1201   -5.0899 H       1  LIG1        0.0655
     39 H           0.5827    2.9225    1.0898 H       1  LIG1        0.0655
     40 H          -0.7605   -1.8325    0.9538 H       1  LIG1        0.0661
     41 H           2.5288   -2.7665    2.4420 H       1  LIG1        0.0625
     42 H           0.9425   -3.3538   -1.5073 H       1  LIG1        0.0625
     43 H          -1.6846    2.2959    1.7316 H       1  LIG1        0.0655
     44 H           2.1751   -5.1639    2.9384 H       1  LIG1        0.0654
     45 H           0.5749   -5.7231   -1.0289 H       1  LIG1        0.0654
     46 H           0.7897    3.5481   -6.1261 H       1  LIG1        0.1166
     47 H           0.3053    1.8758   -6.4964 H       1  LIG1        0.1166
     48 H          -4.4099   -0.3732    2.5510 H       1  LIG1        0.0727
     49 H          -2.6575    1.8682    3.6141 H       1  LIG1        0.0265
     50 H          -2.7085    0.2364    4.2753 H       1  LIG1        0.0265
     51 H          -4.1716    1.2464    4.2570 H       1  LIG1        0.0265
     52 H          -3.7191    2.2189    1.1112 H       1  LIG1        0.0265
     53 H          -5.2529    1.7910    1.8723 H       1  LIG1        0.0265
     54 H          -4.6518    0.8780    0.4714 H       1  LIG1        0.0265
     55 H           0.2419   -8.7073    1.0637 H       1  LIG1        0.0660
     56 H           0.8975   -7.9263   -0.3797 H       1  LIG1        0.0660
     57 H          -0.6229   -7.3225    0.3891 H       1  LIG1        0.0660
@<TRIPOS>BOND
     1     1     4    1
     2     1     2    1
     3     1     3    1
     4     2     5    2
     5     2     6    1
     6     3     8   ar
     7     3     7   ar
     8     4     9    1
     9     5    10    1
    10     5    11    1
    11     6    13   ar
    12     6    12   ar
    13     7    14   ar
    14     8    15   ar
    15     9    16   ar
    16     9    10   ar
    17    10    17   ar
    18    11    18   ar
    19    11    19   ar
    20    14    21    1
    21    14    20   ar
    22    15    20   ar
    23    16    22   ar
    24    17    23   ar
    25    18    24   ar
    26    19    25   ar
    27    20    26    1
    28    21    27    1
    29    22    23   ar
    30    23    28    1
    31    24    29   ar
    32    25    29   ar
    33    26    27    1
    34    28    30    1
    35    29    31    1
    36    30    33    1
    37    30    32    1
    38    31    34    1
    39     1    35    1
    40     7    36    1
    41     8    37    1
    42    15    38    1
    43    16    39    1
    44    17    40    1
    45    18    41    1
    46    19    42    1
    47    22    43    1
    48    24    44    1
    49    25    45    1
    50    27    46    1
    51    27    47    1
    52    30    48    1
    53    32    49    1
    54    32    50    1
    55    32    51    1
    56    33    52    1
    57    33    53    1
    58    33    54    1
    59    34    55    1
    60    34    56    1
    61    34    57    1
@<TRIPOS>MOLECULE
01479498K
 57 61 0 0 0
SMALL
GASTEIGER

@<TRIPOS>ATOM
      1 C           3.1220    0.5324   -0.5363 C.3     1  LIG1        0.1526
      2 C           2.9308   -0.9472   -0.3686 C.2     1  LIG1        0.0278
      3 C           2.8289    1.0282   -1.9634 C.ar    1  LIG1        0.0009
      4 O           2.4018    1.3195    0.4557 O.3     1  LIG1       -0.4789
      5 C           1.8379   -1.4882    0.2012 C.2     1  LIG1        0.0016
      6 C           4.1340   -1.7644   -0.8259 C.2     1  LIG1        0.0721
      7 C           3.8413    0.9384   -2.9392 C.ar    1  LIG1       -0.0091
      8 C           1.5590    1.5253   -2.3535 C.ar    1  LIG1       -0.0511
      9 C           1.1681    0.8293    0.7959 C.ar    1  LIG1        0.1298
     10 C           0.8086   -0.5073    0.6058 C.ar    1  LIG1        0.0283
     11 C           1.7343   -2.9423    0.4360 C.ar    1  LIG1       -0.0165
     12 O           5.1803   -1.5850   -0.1406 O.co2   1  LIG1       -0.5448
     13 O           3.9647   -2.4419   -1.8781 O.co2   1  LIG1       -0.5448
     14 C           3.5569    1.3470   -4.2281 C.ar    1  LIG1        0.1666
     15 C           1.2986    1.9350   -3.6663 C.ar    1  LIG1       -0.0158
     16 C           0.2461    1.7593    1.2775 C.ar    1  LIG1       -0.0158
     17 C          -0.5326   -0.8672    0.7883 C.ar    1  LIG1       -0.0087
     18 C           2.1128   -3.4762    1.6718 C.ar    1  LIG1       -0.0505
     19 C           1.2156   -3.7925   -0.5445 C.ar    1  LIG1       -0.0505
     20 C           2.3197    1.8307   -4.5794 C.ar    1  LIG1        0.1662
     21 O           4.4186    1.3226   -5.2813 O.3     1  LIG1       -0.4526
     22 C          -1.0864    1.3880    1.4545 C.ar    1  LIG1       -0.0164
     23 C          -1.4880    0.0901    1.1433 C.ar    1  LIG1        0.1217
     24 C           1.9376   -4.8373    1.9332 C.ar    1  LIG1       -0.0194
     25 C           1.0323   -5.1542   -0.2784 C.ar    1  LIG1       -0.0194
     26 O           2.2431    2.1671   -5.8958 O.3     1  LIG1       -0.4526
     27 C           3.5597    1.7816   -6.3404 C.3     1  LIG1        0.2332
     28 O          -2.7829   -0.3491    1.1371 O.3     1  LIG1       -0.4893
     29 C           1.3718   -5.6766    0.9713 C.ar    1  LIG1        0.1201
     30 C          -3.8040    0.5951    0.7826 C.3     1  LIG1        0.0946
     31 O           1.2170   -6.9807    1.3605 O.3     1  LIG1       -0.4951
     32 C          -3.6197    1.1698   -0.6256 C.3     1  LIG1       -0.0281
     33 C          -5.1245   -0.1734    0.8331 C.3     1  LIG1       -0.0281
     34 C           0.3294   -7.7619    0.5719 C.3     1  LIG1        0.0788
     35 H           4.1687    0.7860   -0.3246 H       1  LIG1        0.0837
     36 H           4.8172    0.5240   -2.6974 H       1  LIG1        0.0659
     37 H           0.7461    1.5837   -1.6379 H       1  LIG1        0.0623
     38 H           0.3219    2.3042   -3.9526 H       1  LIG1        0.0655
     39 H           0.5595    2.7838    1.4541 H       1  LIG1        0.0655
     40 H          -0.8550   -1.8872    0.5961 H       1  LIG1        0.0661
     41 H           2.5522   -2.8316    2.4292 H       1  LIG1        0.0625
     42 H           0.9716   -3.3924   -1.5262 H       1  LIG1        0.0625
     43 H          -1.7927    2.1355    1.7955 H       1  LIG1        0.0655
     44 H           2.2400   -5.2406    2.8950 H       1  LIG1        0.0654
     45 H           0.6421   -5.7765   -1.0750 H       1  LIG1        0.0654
     46 H           3.4575    0.9829   -7.0848 H       1  LIG1        0.1166
     47 H           4.0292    2.6476   -6.8210 H       1  LIG1        0.1166
     48 H          -3.8544    1.3956    1.5294 H       1  LIG1        0.0727
     49 H          -3.4719    0.3712   -1.3606 H       1  LIG1        0.0265
     50 H          -2.7415    1.8196   -0.6862 H       1  LIG1        0.0265
     51 H          -4.4872    1.7678   -0.9234 H       1  LIG1        0.0265
     52 H          -5.1249   -0.9952    0.1074 H       1  LIG1        0.0265
     53 H          -5.9752    0.4808    0.6181 H       1  LIG1        0.0265
     54 H          -5.2700   -0.6252    1.8198 H       1  LIG1        0.0265
     55 H           0.1838   -8.7186    1.0829 H       1  LIG1        0.0660
     56 H           0.7581   -7.9732   -0.4127 H       1  LIG1        0.0660
     57 H          -0.6519   -7.2827    0.4820 H       1  LIG1        0.0660
@<TRIPOS>BOND
     1     1     4    1
     2     1     2    1
     3     1     3    1
     4     2     5    2
     5     2     6    1
     6     3     8   ar
     7     3     7   ar
     8     4     9    1
     9     5    10    1
    10     5    11    1
    11     6    13   ar
    12     6    12   ar
    13     7    14   ar
    14     8    15   ar
    15     9    16   ar
    16     9    10   ar
    17    10    17   ar
    18    11    18   ar
    19    11    19   ar
    20    14    21    1
    21    14    20   ar
    22    15    20   ar
    23    16    22   ar
    24    17    23   ar
    25    18    24   ar
    26    19    25   ar
    27    20    26    1
    28    21    27    1
    29    22    23   ar
    30    23    28    1
    31    24    29   ar
    32    25    29   ar
    33    26    27    1
    34    28    30    1
    35    29    31    1
    36    30    33    1
    37    30    32    1
    38    31    34    1
    39     1    35    1
    40     7    36    1
    41     8    37    1
    42    15    38    1
    43    16    39    1
    44    17    40    1
    45    18    41    1
    46    19    42    1
    47    22    43    1
    48    24    44    1
    49    25    45    1
    50    27    46    1
    51    27    47    1
    52    30    48    1
    53    32    49    1
    54    32    50    1
    55    32    51    1
    56    33    52    1
    57    33    53    1
    58    33    54    1
    59    34    55    1
    60    34    56    1
    61    34    57    1
@<TRIPOS>MOLECULE
01479498K
 57 61 0 0 0
SMALL
GASTEIGER

@<TRIPOS>ATOM
      1 C           3.1597    0.4950   -0.6879 C.3     1  LIG1        0.1526
      2 C           2.9615   -0.9588   -0.3848 C.2     1  LIG1        0.0278
      3 C           2.9477    0.9076   -2.1453 C.ar    1  LIG1        0.0009
      4 O           2.3439    1.3927    0.1036 O.3     1  LIG1       -0.4789
      5 C           1.8777   -1.4558    0.2407 C.2     1  LIG1        0.0016
      6 C           4.1526   -1.8145   -0.8070 C.2     1  LIG1        0.0721
      7 C           1.9268    0.3440   -2.9338 C.ar    1  LIG1       -0.0091
      8 C           3.7390    1.9509   -2.6894 C.ar    1  LIG1       -0.0511
      9 C           1.1247    0.9071    0.4851 C.ar    1  LIG1        0.1298
     10 C           0.8402   -0.4562    0.5819 C.ar    1  LIG1        0.0283
     11 C           1.7590   -2.9029    0.5112 C.ar    1  LIG1       -0.0165
     12 O           3.9870   -2.4957   -1.8535 O.co2   1  LIG1       -0.5448
     13 O           5.1798   -1.6672   -0.0825 O.co2   1  LIG1       -0.5448
     14 C           1.7385    0.8305   -4.2093 C.ar    1  LIG1        0.1666
     15 C           3.5280    2.4213   -3.9895 C.ar    1  LIG1       -0.0158
     16 C           0.1633    1.8627    0.8165 C.ar    1  LIG1       -0.0158
     17 C          -0.4359   -0.8375    1.0266 C.ar    1  LIG1       -0.0087
     18 C           2.1355   -3.4272    1.7500 C.ar    1  LIG1       -0.0505
     19 C           1.2102   -3.7543   -0.4532 C.ar    1  LIG1       -0.0505
     20 C           2.5169    1.8414   -4.7221 C.ar    1  LIG1        0.1662
     21 O           0.7882    0.4105   -5.0883 O.3     1  LIG1       -0.4526
     22 C          -1.1046    1.4676    1.2465 C.ar    1  LIG1       -0.0164
     23 C          -1.4040    0.1134    1.3707 C.ar    1  LIG1        0.1217
     24 C           1.9312   -4.7821    2.0284 C.ar    1  LIG1       -0.0194
     25 C           1.0035   -5.1086   -0.1719 C.ar    1  LIG1       -0.0194
     26 O           2.1576    2.1823   -5.9901 O.3     1  LIG1       -0.4526
     27 C           1.0814    1.2496   -6.2196 C.3     1  LIG1        0.2332
     28 O          -2.5864   -0.4152    1.8081 O.3     1  LIG1       -0.4893
     29 C           1.3471   -5.6248    1.0786 C.ar    1  LIG1        0.1201
     30 C          -3.5284    0.4354    2.4672 C.3     1  LIG1        0.0946
     31 O           1.1719   -6.9206    1.4866 O.3     1  LIG1       -0.4951
     32 C          -4.8416   -0.3437    2.5300 C.3     1  LIG1       -0.0281
     33 C          -3.0636    0.7673    3.8843 C.3     1  LIG1       -0.0281
     34 C           0.4293   -7.7600    0.6124 C.3     1  LIG1        0.0788
     35 H           4.1903    0.7551   -0.4122 H       1  LIG1        0.0837
     36 H           1.2994   -0.4562   -2.5562 H       1  LIG1        0.0659
     37 H           4.5235    2.3990   -2.0825 H       1  LIG1        0.0623
     38 H           4.1355    3.2168   -4.4024 H       1  LIG1        0.0655
     39 H           0.4072    2.9172    0.7280 H       1  LIG1        0.0655
     40 H          -0.6881   -1.8912    1.1211 H       1  LIG1        0.0661
     41 H           2.5923   -2.7824    2.4961 H       1  LIG1        0.0625
     42 H           0.9581   -3.3609   -1.4357 H       1  LIG1        0.0625
     43 H          -1.8247    2.2427    1.4782 H       1  LIG1        0.0655
     44 H           2.2303   -5.1797    2.9936 H       1  LIG1        0.0654
     45 H           0.5859   -5.7270   -0.9579 H       1  LIG1        0.0654
     46 H           0.1789    1.8171   -6.4748 H       1  LIG1        0.1166
     47 H           1.3449    0.6126   -7.0718 H       1  LIG1        0.1166
     48 H          -3.7174    1.3448    1.8858 H       1  LIG1        0.0727
     49 H          -4.7125   -1.2882    3.0709 H       1  LIG1        0.0265
     50 H          -5.1800   -0.6036    1.5210 H       1  LIG1        0.0265
     51 H          -5.6272    0.2379    3.0221 H       1  LIG1        0.0265
     52 H          -2.8316   -0.1464    4.4427 H       1  LIG1        0.0265
     53 H          -3.8278    1.3294    4.4298 H       1  LIG1        0.0265
     54 H          -2.1484    1.3669    3.8750 H       1  LIG1        0.0265
     55 H           0.3044   -8.7289    1.1058 H       1  LIG1        0.0660
     56 H           0.9689   -7.9315   -0.3247 H       1  LIG1        0.0660
     57 H          -0.5709   -7.3536    0.4253 H       1  LIG1        0.0660
@<TRIPOS>BOND
     1     1     4    1
     2     1     2    1
     3     1     3    1
     4     2     5    2
     5     2     6    1
     6     3     8   ar
     7     3     7   ar
     8     4     9    1
     9     5    10    1
    10     5    11    1
    11     6    13   ar
    12     6    12   ar
    13     7    14   ar
    14     8    15   ar
    15     9    16   ar
    16     9    10   ar
    17    10    17   ar
    18    11    18   ar
    19    11    19   ar
    20    14    21    1
    21    14    20   ar
    22    15    20   ar
    23    16    22   ar
    24    17    23   ar
    25    18    24   ar
    26    19    25   ar
    27    20    26    1
    28    21    27    1
    29    22    23   ar
    30    23    28    1
    31    24    29   ar
    32    25    29   ar
    33    26    27    1
    34    28    30    1
    35    29    31    1
    36    30    33    1
    37    30    32    1
    38    31    34    1
    39     1    35    1
    40     7    36    1
    41     8    37    1
    42    15    38    1
    43    16    39    1
    44    17    40    1
    45    18    41    1
    46    19    42    1
    47    22    43    1
    48    24    44    1
    49    25    45    1
    50    27    46    1
    51    27    47    1
    52    30    48    1
    53    32    49    1
    54    32    50    1
    55    32    51    1
    56    33    52    1
    57    33    53    1
    58    33    54    1
    59    34    55    1
    60    34    56    1
    61    34    57    1
@<TRIPOS>MOLECULE
01479498K
 57 61 0 0 0
SMALL
GASTEIGER

@<TRIPOS>ATOM
      1 C           3.1720    0.5150   -0.5421 C.3     1  LIG1        0.1526
      2 C           3.0551   -0.9631   -0.2556 C.2     1  LIG1        0.0278
      3 C           2.7843    0.9635   -1.9766 C.ar    1  LIG1        0.0009
      4 O           2.4389    1.2758    0.4578 O.3     1  LIG1       -0.4789
      5 C           1.8946   -1.5298    0.1624 C.2     1  LIG1        0.0016
      6 C           4.4235   -1.6749   -0.2723 C.2     1  LIG1        0.0721
      7 C           3.3490    0.3368   -3.1049 C.ar    1  LIG1       -0.0091
      8 C           1.9183    2.0672   -2.2057 C.ar    1  LIG1       -0.0511
      9 C           1.1681    0.8015    0.6700 C.ar    1  LIG1        0.1298
     10 C           0.8152   -0.5360    0.4521 C.ar    1  LIG1        0.0283
     11 C           1.7751   -3.0041    0.3848 C.ar    1  LIG1       -0.0165
     12 O           4.7253   -2.3137    0.7731 O.co2   1  LIG1       -0.5448
     13 O           5.1243   -1.4815   -1.3007 O.co2   1  LIG1       -0.5448
     14 C           3.0352    0.8045   -4.3664 C.ar    1  LIG1        0.1666
     15 C           1.5953    2.5086   -3.4960 C.ar    1  LIG1       -0.0158
     16 C           0.2333    1.7453    1.0967 C.ar    1  LIG1       -0.0158
     17 C          -0.5393   -0.8801    0.5990 C.ar    1  LIG1       -0.0087
     18 C           1.1373   -3.5181    1.5242 C.ar    1  LIG1       -0.0505
     19 C           2.2480   -3.9212   -0.5667 C.ar    1  LIG1       -0.0505
     20 C           2.1779    1.8588   -4.5568 C.ar    1  LIG1        0.1662
     21 O           3.5246    0.3186   -5.5399 O.3     1  LIG1       -0.4526
     22 C          -1.1009    1.3823    1.2497 C.ar    1  LIG1       -0.0164
     23 C          -1.4984    0.0757    0.9705 C.ar    1  LIG1        0.1217
     24 C           0.9704   -4.8979    1.6987 C.ar    1  LIG1       -0.0194
     25 C           2.1189   -5.3039   -0.3742 C.ar    1  LIG1       -0.0194
     26 O           2.0124    2.1684   -5.8709 O.3     1  LIG1       -0.4526
     27 C           2.9052    1.2132   -6.4805 C.3     1  LIG1        0.2332
     28 O          -2.7881   -0.3801    1.0642 O.3     1  LIG1       -0.4893
     29 C           1.4819   -5.7952    0.7629 C.ar    1  LIG1        0.1201
     30 C          -3.8369    0.5561    0.7762 C.3     1  LIG1        0.0946
     31 O           1.2685   -7.1220    1.0293 O.3     1  LIG1       -0.4951
     32 C          -3.8804    0.8751   -0.7173 C.3     1  LIG1       -0.0281
     33 C          -5.1511   -0.0936    1.2059 C.3     1  LIG1       -0.0281
     34 C           2.3098   -7.9885    0.5897 C.3     1  LIG1        0.0788
     35 H           4.2103    0.8416   -0.3997 H       1  LIG1        0.0837
     36 H           4.0419   -0.4913   -3.0113 H       1  LIG1        0.0659
     37 H           1.4869    2.6072   -1.3682 H       1  LIG1        0.0623
     38 H           0.9239    3.3438   -3.6496 H       1  LIG1        0.0655
     39 H           0.5487    2.7678    1.2813 H       1  LIG1        0.0655
     40 H          -0.8655   -1.9005    0.4170 H       1  LIG1        0.0661
     41 H           0.7683   -2.8453    2.2935 H       1  LIG1        0.0625
     42 H           2.7504   -3.5637   -1.4634 H       1  LIG1        0.0625
     43 H          -1.7970    2.1405    1.5846 H       1  LIG1        0.0655
     44 H           0.4614   -5.2702    2.5826 H       1  LIG1        0.0654
     45 H           2.5214   -5.9606   -1.1359 H       1  LIG1        0.0654
     46 H           2.3402    0.6207   -7.2089 H       1  LIG1        0.1166
     47 H           3.6913    1.7622   -7.0129 H       1  LIG1        0.1166
     48 H          -3.7327    1.4722    1.3663 H       1  LIG1        0.0727
     49 H          -3.9839   -0.0413   -1.3084 H       1  LIG1        0.0265
     50 H          -2.9557    1.3590   -1.0481 H       1  LIG1        0.0265
     51 H          -4.7140    1.5434   -0.9548 H       1  LIG1        0.0265
     52 H          -5.3072   -1.0480    0.6919 H       1  LIG1        0.0265
     53 H          -6.0033    0.5617    0.9983 H       1  LIG1        0.0265
     54 H          -5.1353   -0.3106    2.2794 H       1  LIG1        0.0265
     55 H           2.0986   -8.9872    0.9855 H       1  LIG1        0.0660
     56 H           3.2819   -7.6718    0.9826 H       1  LIG1        0.0660
     57 H           2.3321   -8.0701   -0.5013 H       1  LIG1        0.0660
@<TRIPOS>BOND
     1     1     4    1
     2     1     2    1
     3     1     3    1
     4     2     5    2
     5     2     6    1
     6     3     8   ar
     7     3     7   ar
     8     4     9    1
     9     5    10    1
    10     5    11    1
    11     6    13   ar
    12     6    12   ar
    13     7    14   ar
    14     8    15   ar
    15     9    16   ar
    16     9    10   ar
    17    10    17   ar
    18    11    18   ar
    19    11    19   ar
    20    14    21    1
    21    14    20   ar
    22    15    20   ar
    23    16    22   ar
    24    17    23   ar
    25    18    24   ar
    26    19    25   ar
    27    20    26    1
    28    21    27    1
    29    22    23   ar
    30    23    28    1
    31    24    29   ar
    32    25    29   ar
    33    26    27    1
    34    28    30    1
    35    29    31    1
    36    30    33    1
    37    30    32    1
    38    31    34    1
    39     1    35    1
    40     7    36    1
    41     8    37    1
    42    15    38    1
    43    16    39    1
    44    17    40    1
    45    18    41    1
    46    19    42    1
    47    22    43    1
    48    24    44    1
    49    25    45    1
    50    27    46    1
    51    27    47    1
    52    30    48    1
    53    32    49    1
    54    32    50    1
    55    32    51    1
    56    33    52    1
    57    33    53    1
    58    33    54    1
    59    34    55    1
    60    34    56    1
    61    34    57    1
@<TRIPOS>MOLECULE
01479498K
 57 61 0 0 0
SMALL
GASTEIGER

@<TRIPOS>ATOM
      1 C           3.1321    0.5471   -0.5536 C.3     1  LIG1        0.1526
      2 C           3.0179   -0.9448   -0.3188 C.2     1  LIG1        0.0278
      3 C           2.7895    0.9741   -1.9920 C.ar    1  LIG1        0.0009
      4 O           2.3721    1.3443    0.4044 O.3     1  LIG1       -0.4789
      5 C           1.9278   -1.4921    0.2553 C.2     1  LIG1        0.0016
      6 C           4.2878   -1.7233   -0.7491 C.2     1  LIG1        0.0721
      7 C           3.7627    0.8595   -3.0028 C.ar    1  LIG1       -0.0091
      8 C           1.5118    1.4827   -2.3486 C.ar    1  LIG1       -0.0511
      9 C           1.1465    0.8304    0.7260 C.ar    1  LIG1        0.1298
     10 C           0.8666   -0.5317    0.6490 C.ar    1  LIG1        0.0283
     11 C           1.8114   -2.9460    0.4868 C.ar    1  LIG1       -0.0165
     12 O           5.3727   -1.0898   -0.5830 O.co2   1  LIG1       -0.5448
     13 O           4.1198   -2.8603   -1.2535 O.co2   1  LIG1       -0.5448
     14 C           3.4362    1.2731   -4.2807 C.ar    1  LIG1        0.1666
     15 C           1.2073    1.8926   -3.6488 C.ar    1  LIG1       -0.0158
     16 C           0.1497    1.7537    1.0527 C.ar    1  LIG1       -0.0158
     17 C          -0.4400   -0.9561    0.9156 C.ar    1  LIG1       -0.0087
     18 C           2.2130   -3.4653    1.7197 C.ar    1  LIG1       -0.0505
     19 C           1.2605   -3.8021   -0.4704 C.ar    1  LIG1       -0.0505
     20 C           2.1933    1.7780   -4.5885 C.ar    1  LIG1        0.1662
     21 O           4.2601    1.2517   -5.3642 O.3     1  LIG1       -0.4526
     22 C          -1.1641    1.3167    1.2166 C.ar    1  LIG1       -0.0164
     23 C          -1.4713   -0.0397    1.1139 C.ar    1  LIG1        0.1217
     24 C           2.0649   -4.8206    1.9973 C.ar    1  LIG1       -0.0194
     25 C           1.1086   -5.1680   -0.1912 C.ar    1  LIG1       -0.0194
     26 O           2.0780    2.1372   -5.8942 O.3     1  LIG1       -0.4526
     27 C           3.4023    1.8195   -6.3695 C.3     1  LIG1        0.2332
     28 O          -2.7969   -0.3465    1.2073 O.3     1  LIG1       -0.4893
     29 C           1.5093   -5.6740    1.0478 C.ar    1  LIG1        0.1201
     30 C          -3.3233   -1.5290    0.5814 C.3     1  LIG1        0.0946
     31 O           1.3086   -7.0288    1.2219 O.3     1  LIG1       -0.4951
     32 C          -2.8368   -1.8157   -0.8424 C.3     1  LIG1       -0.0281
     33 C          -3.2658   -2.7277    1.5247 C.3     1  LIG1       -0.0281
     34 C           1.7351   -7.5522    2.4779 C.3     1  LIG1        0.0788
     35 H           4.1543    0.8860   -0.3579 H       1  LIG1        0.0837
     36 H           4.7504    0.4545   -2.7859 H       1  LIG1        0.0659
     37 H           0.7230    1.5721   -1.6112 H       1  LIG1        0.0623
     38 H           0.2282    2.2846   -3.8913 H       1  LIG1        0.0655
     39 H           0.3864    2.8105    1.0862 H       1  LIG1        0.0655
     40 H          -0.6408   -2.0180    0.9064 H       1  LIG1        0.0661
     41 H           2.6580   -2.8042    2.4617 H       1  LIG1        0.0625
     42 H           0.9797   -3.4175   -1.4466 H       1  LIG1        0.0625
     43 H          -1.9559    2.0423    1.3843 H       1  LIG1        0.0655
     44 H           2.4104   -5.1672    2.9643 H       1  LIG1        0.0654
     45 H           0.7034   -5.8285   -0.9486 H       1  LIG1        0.0654
     46 H           3.3112    1.1111   -7.2016 H       1  LIG1        0.1166
     47 H           3.8618    2.7405   -6.7424 H       1  LIG1        0.1166
     48 H          -4.3903   -1.3027    0.4656 H       1  LIG1        0.0727
     49 H          -1.7988   -2.1496   -0.8938 H       1  LIG1        0.0265
     50 H          -2.9125   -0.9144   -1.4624 H       1  LIG1        0.0265
     51 H          -3.4378   -2.6061   -1.3036 H       1  LIG1        0.0265
     52 H          -2.2501   -2.9801    1.8340 H       1  LIG1        0.0265
     53 H          -3.7154   -3.6131    1.0661 H       1  LIG1        0.0265
     54 H          -3.8146   -2.4993    2.4450 H       1  LIG1        0.0265
     55 H           1.5204   -8.6222    2.4877 H       1  LIG1        0.0660
     56 H           1.1787   -7.0947    3.3004 H       1  LIG1        0.0660
     57 H           2.8139   -7.4272    2.6111 H       1  LIG1        0.0660
@<TRIPOS>BOND
     1     1     4    1
     2     1     2    1
     3     1     3    1
     4     2     5    2
     5     2     6    1
     6     3     8   ar
     7     3     7   ar
     8     4     9    1
     9     5    10    1
    10     5    11    1
    11     6    13   ar
    12     6    12   ar
    13     7    14   ar
    14     8    15   ar
    15     9    16   ar
    16     9    10   ar
    17    10    17   ar
    18    11    18   ar
    19    11    19   ar
    20    14    21    1
    21    14    20   ar
    22    15    20   ar
    23    16    22   ar
    24    17    23   ar
    25    18    24   ar
    26    19    25   ar
    27    20    26    1
    28    21    27    1
    29    22    23   ar
    30    23    28    1
    31    24    29   ar
    32    25    29   ar
    33    26    27    1
    34    28    30    1
    35    29    31    1
    36    30    33    1
    37    30    32    1
    38    31    34    1
    39     1    35    1
    40     7    36    1
    41     8    37    1
    42    15    38    1
    43    16    39    1
    44    17    40    1
    45    18    41    1
    46    19    42    1
    47    22    43    1
    48    24    44    1
    49    25    45    1
    50    27    46    1
    51    27    47    1
    52    30    48    1
    53    32    49    1
    54    32    50    1
    55    32    51    1
    56    33    52    1
    57    33    53    1
    58    33    54    1
    59    34    55    1
    60    34    56    1
    61    34    57    1
@<TRIPOS>MOLECULE
01479498K
 57 61 0 0 0
SMALL
GASTEIGER

@<TRIPOS>ATOM
      1 C           3.0831    0.5913   -0.5646 C.3     1  LIG1        0.1526
      2 C           2.9492   -0.8887   -0.3510 C.2     1  LIG1        0.0278
      3 C           2.8754    1.0285   -2.0222 C.ar    1  LIG1        0.0009
      4 O           2.2574    1.3940    0.3233 O.3     1  LIG1       -0.4789
      5 C           1.8804   -1.4644    0.2296 C.2     1  LIG1        0.0016
      6 C           4.1886   -1.6702   -0.7705 C.2     1  LIG1        0.0721
      7 C           1.6377    1.5009   -2.4979 C.ar    1  LIG1       -0.0091
      8 C           3.9560    0.9250   -2.9355 C.ar    1  LIG1       -0.0511
      9 C           1.0552    0.8415    0.6727 C.ar    1  LIG1        0.1298
     10 C           0.7979   -0.5284    0.6025 C.ar    1  LIG1        0.0283
     11 C           1.8364   -2.9192    0.4838 C.ar    1  LIG1       -0.0165
     12 O           5.2137   -1.4471   -0.0620 O.co2   1  LIG1       -0.5448
     13 O           4.0705   -2.3656   -1.8170 O.co2   1  LIG1       -0.5448
     14 C           1.5314    1.8617   -3.8246 C.ar    1  LIG1        0.1666
     15 C           3.8187    1.2951   -4.2787 C.ar    1  LIG1       -0.0158
     16 C           0.0627    1.7314    1.0819 C.ar    1  LIG1       -0.0158
     17 C          -0.4969   -0.9874    0.8955 C.ar    1  LIG1       -0.0087
     18 C           2.1798   -3.4164    1.7453 C.ar    1  LIG1       -0.0505
     19 C           1.3838   -3.8036   -0.4982 C.ar    1  LIG1       -0.0505
     20 C           2.5922    1.7628   -4.6919 C.ar    1  LIG1        0.1662
     21 O           0.4081    2.3389   -4.4273 O.3     1  LIG1       -0.4526
     22 C          -1.2222    1.2601    1.3482 C.ar    1  LIG1       -0.0164
     23 C          -1.5189   -0.0978    1.2164 C.ar    1  LIG1        0.1217
     24 C           2.0507   -4.7802    2.0314 C.ar    1  LIG1       -0.0194
     25 C           1.2484   -5.1640   -0.2089 C.ar    1  LIG1       -0.0194
     26 O           2.2722    2.1658   -5.9515 O.3     1  LIG1       -0.4526
     27 C           0.8802    2.4986   -5.7786 C.3     1  LIG1        0.2332
     28 O          -2.8203   -0.4283    1.4539 O.3     1  LIG1       -0.4893
     29 C           1.5739   -5.6590    1.0569 C.ar    1  LIG1        0.1201
     30 C          -3.4438   -1.5374    0.7903 C.3     1  LIG1        0.0946
     31 O           1.3776   -7.0048    1.2165 O.3     1  LIG1       -0.4951
     32 C          -3.1329   -1.6930   -0.6992 C.3     1  LIG1       -0.0281
     33 C          -3.3029   -2.8295    1.5884 C.3     1  LIG1       -0.0281
     34 C           1.8028   -7.5654    2.4511 C.3     1  LIG1        0.0788
     35 H           4.1002    0.8981   -0.2866 H       1  LIG1        0.0837
     36 H           0.7703    1.5814   -1.8562 H       1  LIG1        0.0659
     37 H           4.9099    0.5206   -2.5942 H       1  LIG1        0.0623
     38 H           4.6470    1.1950   -4.9692 H       1  LIG1        0.0655
     39 H           0.2840    2.7920    1.1502 H       1  LIG1        0.0655
     40 H          -0.6872   -2.0508    0.8477 H       1  LIG1        0.0661
     41 H           2.5552   -2.7369    2.5071 H       1  LIG1        0.0625
     42 H           1.1524   -3.4332   -1.4942 H       1  LIG1        0.0625
     43 H          -2.0036    1.9600    1.6307 H       1  LIG1        0.0655
     44 H           2.3332   -5.1155    3.0223 H       1  LIG1        0.0654
     45 H           0.9002   -5.8412   -0.9832 H       1  LIG1        0.0654
     46 H           0.7310    3.5424   -6.0784 H       1  LIG1        0.1166
     47 H           0.2812    1.8583   -6.4368 H       1  LIG1        0.1166
     48 H          -4.5112   -1.2838    0.8309 H       1  LIG1        0.0727
     49 H          -2.1492   -2.1344   -0.8799 H       1  LIG1        0.0265
     50 H          -3.1589   -0.7237   -1.2074 H       1  LIG1        0.0265
     51 H          -3.8664   -2.3532   -1.1744 H       1  LIG1        0.0265
     52 H          -2.2758   -3.1994    1.6137 H       1  LIG1        0.0265
     53 H          -3.9323   -3.6189    1.1651 H       1  LIG1        0.0265
     54 H          -3.6034   -2.6659    2.6290 H       1  LIG1        0.0265
     55 H           1.6152   -8.6427    2.4107 H       1  LIG1        0.0660
     56 H           1.2247   -7.1607    3.2884 H       1  LIG1        0.0660
     57 H           2.8774   -7.4202    2.6039 H       1  LIG1        0.0660
@<TRIPOS>BOND
     1     1     4    1
     2     1     2    1
     3     1     3    1
     4     2     5    2
     5     2     6    1
     6     3     8   ar
     7     3     7   ar
     8     4     9    1
     9     5    10    1
    10     5    11    1
    11     6    13   ar
    12     6    12   ar
    13     7    14   ar
    14     8    15   ar
    15     9    16   ar
    16     9    10   ar
    17    10    17   ar
    18    11    18   ar
    19    11    19   ar
    20    14    21    1
    21    14    20   ar
    22    15    20   ar
    23    16    22   ar
    24    17    23   ar
    25    18    24   ar
    26    19    25   ar
    27    20    26    1
    28    21    27    1
    29    22    23   ar
    30    23    28    1
    31    24    29   ar
    32    25    29   ar
    33    26    27    1
    34    28    30    1
    35    29    31    1
    36    30    33    1
    37    30    32    1
    38    31    34    1
    39     1    35    1
    40     7    36    1
    41     8    37    1
    42    15    38    1
    43    16    39    1
    44    17    40    1
    45    18    41    1
    46    19    42    1
    47    22    43    1
    48    24    44    1
    49    25    45    1
    50    27    46    1
    51    27    47    1
    52    30    48    1
    53    32    49    1
    54    32    50    1
    55    32    51    1
    56    33    52    1
    57    33    53    1
    58    33    54    1
    59    34    55    1
    60    34    56    1
    61    34    57    1
@<TRIPOS>MOLECULE
01479498K
 57 61 0 0 0
SMALL
GASTEIGER

@<TRIPOS>ATOM
      1 C           3.2304    0.5114   -0.5783 C.3     1  LIG1        0.1526
      2 C           3.1023   -0.9479   -0.2531 C.2     1  LIG1        0.0278
      3 C           2.8928    0.9241   -2.0253 C.ar    1  LIG1        0.0009
      4 O           2.4205    1.3224    0.3227 O.3     1  LIG1       -0.4789
      5 C           1.9650   -1.4965    0.2154 C.2     1  LIG1        0.0016
      6 C           4.4006   -1.7312   -0.3894 C.2     1  LIG1        0.0721
      7 C           2.6663    2.2860   -2.3191 C.ar    1  LIG1       -0.0091
      8 C           2.8155   -0.0112   -3.0867 C.ar    1  LIG1       -0.0511
      9 C           1.1531    0.8330    0.5130 C.ar    1  LIG1        0.1298
     10 C           0.8630   -0.5325    0.4408 C.ar    1  LIG1        0.0283
     11 C           1.8681   -2.9442    0.4846 C.ar    1  LIG1       -0.0165
     12 O           4.5671   -2.3149   -1.4960 O.co2   1  LIG1       -0.5448
     13 O           5.1722   -1.6440    0.6073 O.co2   1  LIG1       -0.5448
     14 C           2.3383    2.6436   -3.6108 C.ar    1  LIG1        0.1666
     15 C           2.4914    0.3808   -4.3918 C.ar    1  LIG1       -0.0158
     16 C           0.1598    1.7572    0.8241 C.ar    1  LIG1       -0.0158
     17 C          -0.4600   -0.9547    0.6511 C.ar    1  LIG1       -0.0087
     18 C           2.1307   -3.4465    1.7617 C.ar    1  LIG1       -0.0505
     19 C           1.4338   -3.8159   -0.5187 C.ar    1  LIG1       -0.0505
     20 C           2.2503    1.7152   -4.6194 C.ar    1  LIG1        0.1662
     21 O           2.0639    3.9053   -4.0416 O.3     1  LIG1       -0.4526
     22 C          -1.1507    1.3202    1.0169 C.ar    1  LIG1       -0.0164
     23 C          -1.4747   -0.0352    0.9075 C.ar    1  LIG1        0.1217
     24 C           1.9223   -4.8007    2.0465 C.ar    1  LIG1       -0.0194
     25 C           1.2216   -5.1659   -0.2311 C.ar    1  LIG1       -0.0194
     26 O           1.9105    2.2724   -5.8130 O.3     1  LIG1       -0.4526
     27 C           1.7811    3.6562   -5.4325 C.3     1  LIG1        0.2332
     28 O          -2.7924   -0.3195    1.1099 O.3     1  LIG1       -0.4893
     29 C           1.4460   -5.6618    1.0555 C.ar    1  LIG1        0.1201
     30 C          -3.4077   -1.5092    0.6009 C.3     1  LIG1        0.0946
     31 O           1.1649   -6.9928    1.2139 O.3     1  LIG1       -0.4951
     32 C          -3.1284   -1.8115   -0.8707 C.3     1  LIG1       -0.0281
     33 C          -3.2316   -2.7054    1.5311 C.3     1  LIG1       -0.0281
     34 C           1.2645   -7.5068    2.5350 C.3     1  LIG1        0.0788
     35 H           4.2634    0.8346   -0.3957 H       1  LIG1        0.0837
     36 H           2.7275    3.0417   -1.5429 H       1  LIG1        0.0659
     37 H           3.0094   -1.0677   -2.9051 H       1  LIG1        0.0623
     38 H           2.4349   -0.3497   -5.1897 H       1  LIG1        0.0655
     39 H           0.4054    2.8116    0.8988 H       1  LIG1        0.0655
     40 H          -0.6669   -2.0149    0.6163 H       1  LIG1        0.0661
     41 H           2.5059   -2.7794    2.5348 H       1  LIG1        0.0625
     42 H           1.2602   -3.4408   -1.5241 H       1  LIG1        0.0625
     43 H          -1.9286    2.0437    1.2443 H       1  LIG1        0.0655
     44 H           2.1481   -5.1441    3.0491 H       1  LIG1        0.0654
     45 H           0.8796   -5.8320   -1.0175 H       1  LIG1        0.0654
     46 H           2.4699    4.2524   -6.0419 H       1  LIG1        0.1166
     47 H           0.7561    3.9825   -5.6453 H       1  LIG1        0.1166
     48 H          -4.4787   -1.2693    0.6407 H       1  LIG1        0.0727
     49 H          -2.1405   -2.2506   -1.0307 H       1  LIG1        0.0265
     50 H          -3.1835   -0.8979   -1.4717 H       1  LIG1        0.0265
     51 H          -3.8607   -2.5273   -1.2587 H       1  LIG1        0.0265
     52 H          -2.2031   -3.0695    1.5655 H       1  LIG1        0.0265
     53 H          -3.8679   -3.5385    1.2151 H       1  LIG1        0.0265
     54 H          -3.5024   -2.4314    2.5564 H       1  LIG1        0.0265
     55 H           0.9425   -8.5523    2.5110 H       1  LIG1        0.0660
     56 H           0.5986   -6.9723    3.2211 H       1  LIG1        0.0660
     57 H           2.3000   -7.4849    2.8892 H       1  LIG1        0.0660
@<TRIPOS>BOND
     1     1     4    1
     2     1     2    1
     3     1     3    1
     4     2     5    2
     5     2     6    1
     6     3     8   ar
     7     3     7   ar
     8     4     9    1
     9     5    10    1
    10     5    11    1
    11     6    13   ar
    12     6    12   ar
    13     7    14   ar
    14     8    15   ar
    15     9    16   ar
    16     9    10   ar
    17    10    17   ar
    18    11    18   ar
    19    11    19   ar
    20    14    21    1
    21    14    20   ar
    22    15    20   ar
    23    16    22   ar
    24    17    23   ar
    25    18    24   ar
    26    19    25   ar
    27    20    26    1
    28    21    27    1
    29    22    23   ar
    30    23    28    1
    31    24    29   ar
    32    25    29   ar
    33    26    27    1
    34    28    30    1
    35    29    31    1
    36    30    33    1
    37    30    32    1
    38    31    34    1
    39     1    35    1
    40     7    36    1
    41     8    37    1
    42    15    38    1
    43    16    39    1
    44    17    40    1
    45    18    41    1
    46    19    42    1
    47    22    43    1
    48    24    44    1
    49    25    45    1
    50    27    46    1
    51    27    47    1
    52    30    48    1
    53    32    49    1
    54    32    50    1
    55    32    51    1
    56    33    52    1
    57    33    53    1
    58    33    54    1
    59    34    55    1
    60    34    56    1
    61    34    57    1
@<TRIPOS>MOLECULE
01479498K
 57 61 0 0 0
SMALL
GASTEIGER

@<TRIPOS>ATOM
      1 C           3.2101    0.4741   -0.6000 C.3     1  LIG1        0.1526
      2 C           3.0735   -0.9894   -0.2868 C.2     1  LIG1        0.0278
      3 C           2.8846    0.8985   -2.0463 C.ar    1  LIG1        0.0009
      4 O           2.4093    1.2888    0.3061 O.3     1  LIG1       -0.4789
      5 C           1.9470   -1.5292    0.2169 C.2     1  LIG1        0.0016
      6 C           4.3558   -1.7864   -0.4990 C.2     1  LIG1        0.0721
      7 C           2.6370    2.2594   -2.3279 C.ar    1  LIG1       -0.0091
      8 C           2.8559   -0.0226   -3.1223 C.ar    1  LIG1       -0.0511
      9 C           1.1449    0.8039    0.5172 C.ar    1  LIG1        0.1298
     10 C           0.8524   -0.5610    0.4605 C.ar    1  LIG1        0.0283
     11 C           1.8485   -2.9730    0.5085 C.ar    1  LIG1       -0.0165
     12 O           5.2722   -1.5367    0.3340 O.co2   1  LIG1       -0.5448
     13 O           4.3665   -2.5423   -1.5099 O.co2   1  LIG1       -0.5448
     14 C           2.3380    2.6288   -3.6234 C.ar    1  LIG1        0.1666
     15 C           2.5617    0.3814   -4.4305 C.ar    1  LIG1       -0.0158
     16 C           0.1567    1.7321    0.8340 C.ar    1  LIG1       -0.0158
     17 C          -0.4690   -0.9789    0.6914 C.ar    1  LIG1       -0.0087
     18 C           2.1063   -3.4527    1.7955 C.ar    1  LIG1       -0.0505
     19 C           1.4164   -3.8627   -0.4795 C.ar    1  LIG1       -0.0505
     20 C           2.2996    1.7137   -4.6469 C.ar    1  LIG1        0.1662
     21 O           2.0512    3.8909   -4.0449 O.3     1  LIG1       -0.4526
     22 C          -1.1523    1.2999    1.0461 C.ar    1  LIG1       -0.0164
     23 C          -1.4794   -0.0554    0.9499 C.ar    1  LIG1        0.1217
     24 C           1.9004   -4.8021    2.1039 C.ar    1  LIG1       -0.0194
     25 C           1.2064   -5.2079   -0.1687 C.ar    1  LIG1       -0.0194
     26 O           1.9849    2.2809   -5.8425 O.3     1  LIG1       -0.4526
     27 C           1.8132    3.6560   -5.4465 C.3     1  LIG1        0.2332
     28 O          -2.7956   -0.3382    1.1662 O.3     1  LIG1       -0.4893
     29 C           1.4302   -5.6825    1.1263 C.ar    1  LIG1        0.1201
     30 C          -3.4215   -1.5124    0.6326 C.3     1  LIG1        0.0946
     31 O           1.1546   -7.0108    1.3057 O.3     1  LIG1       -0.4951
     32 C          -3.1362   -1.7974   -0.8418 C.3     1  LIG1       -0.0281
     33 C          -3.2633   -2.7244    1.5453 C.3     1  LIG1       -0.0281
     34 C           1.2795   -7.5104    2.6300 C.3     1  LIG1        0.0788
     35 H           4.2439    0.7912   -0.4139 H       1  LIG1        0.0837
     36 H           2.6640    3.0066   -1.5415 H       1  LIG1        0.0659
     37 H           3.0649   -1.0776   -2.9521 H       1  LIG1        0.0623
     38 H           2.5438   -0.3387   -5.2395 H       1  LIG1        0.0655
     39 H           0.4051    2.7865    0.8971 H       1  LIG1        0.0655
     40 H          -0.6798   -2.0391    0.6670 H       1  LIG1        0.0661
     41 H           2.4723   -2.7709    2.5603 H       1  LIG1        0.0625
     42 H           1.2494   -3.5062   -1.4928 H       1  LIG1        0.0625
     43 H          -1.9263    2.0265    1.2756 H       1  LIG1        0.0655
     44 H           2.1215   -5.1275    3.1131 H       1  LIG1        0.0654
     45 H           0.8695   -5.8886   -0.9457 H       1  LIG1        0.0654
     46 H           2.5051    4.2762   -6.0277 H       1  LIG1        0.1166
     47 H           0.7875    3.9617   -5.6835 H       1  LIG1        0.1166
     48 H          -4.4900   -1.2610    0.6695 H       1  LIG1        0.0727
     49 H          -2.1517   -2.2437   -1.0014 H       1  LIG1        0.0265
     50 H          -3.1796   -0.8755   -1.4308 H       1  LIG1        0.0265
     51 H          -3.8728   -2.5011   -1.2433 H       1  LIG1        0.0265
     52 H          -2.2382   -3.0973    1.5814 H       1  LIG1        0.0265
     53 H          -3.9045   -3.5464    1.2121 H       1  LIG1        0.0265
     54 H          -3.5391   -2.4635    2.5727 H       1  LIG1        0.0265
     55 H           0.9712   -8.5604    2.6213 H       1  LIG1        0.0660
     56 H           0.6159   -6.9777    3.3200 H       1  LIG1        0.0660
     57 H           2.3194   -7.4713    2.9701 H       1  LIG1        0.0660
@<TRIPOS>BOND
     1     1     4    1
     2     1     2    1
     3     1     3    1
     4     2     5    2
     5     2     6    1
     6     3     8   ar
     7     3     7   ar
     8     4     9    1
     9     5    10    1
    10     5    11    1
    11     6    13   ar
    12     6    12   ar
    13     7    14   ar
    14     8    15   ar
    15     9    16   ar
    16     9    10   ar
    17    10    17   ar
    18    11    18   ar
    19    11    19   ar
    20    14    21    1
    21    14    20   ar
    22    15    20   ar
    23    16    22   ar
    24    17    23   ar
    25    18    24   ar
    26    19    25   ar
    27    20    26    1
    28    21    27    1
    29    22    23   ar
    30    23    28    1
    31    24    29   ar
    32    25    29   ar
    33    26    27    1
    34    28    30    1
    35    29    31    1
    36    30    33    1
    37    30    32    1
    38    31    34    1
    39     1    35    1
    40     7    36    1
    41     8    37    1
    42    15    38    1
    43    16    39    1
    44    17    40    1
    45    18    41    1
    46    19    42    1
    47    22    43    1
    48    24    44    1
    49    25    45    1
    50    27    46    1
    51    27    47    1
    52    30    48    1
    53    32    49    1
    54    32    50    1
    55    32    51    1
    56    33    52    1
    57    33    53    1
    58    33    54    1
    59    34    55    1
    60    34    56    1
    61    34    57    1
@<TRIPOS>MOLECULE
01479498K
 57 61 0 0 0
SMALL
GASTEIGER

@<TRIPOS>ATOM
      1 C           3.1085    0.5856   -0.5610 C.3     1  LIG1        0.1526
      2 C           2.9770   -0.8949   -0.3441 C.2     1  LIG1        0.0278
      3 C           2.8694    1.0237   -2.0144 C.ar    1  LIG1        0.0009
      4 O           2.3017    1.3844    0.3492 O.3     1  LIG1       -0.4789
      5 C           1.9116   -1.4675    0.2433 C.2     1  LIG1        0.0016
      6 C           4.2108   -1.6784   -0.7842 C.2     1  LIG1        0.0721
      7 C           1.6286    1.5169   -2.4596 C.ar    1  LIG1       -0.0091
      8 C           3.9234    0.9017   -2.9556 C.ar    1  LIG1       -0.0511
      9 C           1.0923    0.8400    0.6878 C.ar    1  LIG1        0.1298
     10 C           0.8299   -0.5282    0.6110 C.ar    1  LIG1        0.0283
     11 C           1.8567   -2.9232    0.4955 C.ar    1  LIG1       -0.0165
     12 O           5.2581   -1.4205   -0.1238 O.co2   1  LIG1       -0.5448
     13 O           4.0617   -2.4091   -1.8021 O.co2   1  LIG1       -0.5448
     14 C           1.4930    1.8785   -3.7839 C.ar    1  LIG1        0.1666
     15 C           3.7567    1.2732   -4.2961 C.ar    1  LIG1       -0.0158
     16 C           0.0969    1.7349    1.0777 C.ar    1  LIG1       -0.0158
     17 C          -0.4727   -0.9805    0.8760 C.ar    1  LIG1       -0.0087
     18 C           2.2247   -3.4305    1.7460 C.ar    1  LIG1       -0.0505
     19 C           1.3596   -3.7962   -0.4756 C.ar    1  LIG1       -0.0505
     20 C           2.5287    1.7619   -4.6780 C.ar    1  LIG1        0.1662
     21 O           0.3624    2.3752   -4.3565 O.3     1  LIG1       -0.4526
     22 C          -1.1982    1.2711    1.3056 C.ar    1  LIG1       -0.0164
     23 C          -1.4995   -0.0849    1.1633 C.ar    1  LIG1        0.1217
     24 C           2.0740   -4.7923    2.0328 C.ar    1  LIG1       -0.0194
     25 C           1.2021   -5.1537   -0.1849 C.ar    1  LIG1       -0.0194
     26 O           2.1824    2.1702   -5.9290 O.3     1  LIG1       -0.4526
     27 C           0.8031    2.5321   -5.7185 C.3     1  LIG1        0.2332
     28 O          -2.8121   -0.4045    1.3460 O.3     1  LIG1       -0.4893
     29 C           1.5505   -5.6582    1.0706 C.ar    1  LIG1        0.1201
     30 C          -3.4069   -1.5393    0.6989 C.3     1  LIG1        0.0946
     31 O           1.3265   -6.9995    1.2326 O.3     1  LIG1       -0.4951
     32 C          -3.0391   -1.7499   -0.7714 C.3     1  LIG1       -0.0281
     33 C          -3.2962   -2.7988    1.5516 C.3     1  LIG1       -0.0281
     34 C           1.7619   -7.5717    2.4580 C.3     1  LIG1        0.0788
     35 H           4.1307    0.8939   -0.3052 H       1  LIG1        0.0837
     36 H           0.7782    1.6143   -1.7991 H       1  LIG1        0.0659
     37 H           4.8799    0.4833   -2.6390 H       1  LIG1        0.0623
     38 H           4.5663    1.1597   -5.0073 H       1  LIG1        0.0655
     39 H           0.3217    2.7946    1.1493 H       1  LIG1        0.0655
     40 H          -0.6664   -2.0433    0.8244 H       1  LIG1        0.0661
     41 H           2.6331   -2.7608    2.4995 H       1  LIG1        0.0625
     42 H           1.1072   -3.4176   -1.4633 H       1  LIG1        0.0625
     43 H          -1.9842    1.9758    1.5614 H       1  LIG1        0.0655
     44 H           2.3754   -5.1365    3.0151 H       1  LIG1        0.0654
     45 H           0.8167   -5.8207   -0.9504 H       1  LIG1        0.0654
     46 H           0.6688    3.5807   -6.0086 H       1  LIG1        0.1166
     47 H           0.1734    1.9088   -6.3643 H       1  LIG1        0.1166
     48 H          -4.4758   -1.2875    0.6866 H       1  LIG1        0.0727
     49 H          -2.0548   -2.2078   -0.8995 H       1  LIG1        0.0265
     50 H          -3.0357   -0.7997   -1.3148 H       1  LIG1        0.0265
     51 H          -3.7601   -2.4211   -1.2512 H       1  LIG1        0.0265
     52 H          -2.2652   -3.1389    1.6691 H       1  LIG1        0.0265
     53 H          -3.8747   -3.6189    1.1145 H       1  LIG1        0.0265
     54 H          -3.6770   -2.6046    2.5601 H       1  LIG1        0.0265
     55 H           1.5458   -8.6440    2.4210 H       1  LIG1        0.0660
     56 H           1.2116   -7.1531    3.3073 H       1  LIG1        0.0660
     57 H           2.8427   -7.4548    2.5890 H       1  LIG1        0.0660
@<TRIPOS>BOND
     1     1     4    1
     2     1     2    1
     3     1     3    1
     4     2     5    2
     5     2     6    1
     6     3     8   ar
     7     3     7   ar
     8     4     9    1
     9     5    10    1
    10     5    11    1
    11     6    13   ar
    12     6    12   ar
    13     7    14   ar
    14     8    15   ar
    15     9    16   ar
    16     9    10   ar
    17    10    17   ar
    18    11    18   ar
    19    11    19   ar
    20    14    21    1
    21    14    20   ar
    22    15    20   ar
    23    16    22   ar
    24    17    23   ar
    25    18    24   ar
    26    19    25   ar
    27    20    26    1
    28    21    27    1
    29    22    23   ar
    30    23    28    1
    31    24    29   ar
    32    25    29   ar
    33    26    27    1
    34    28    30    1
    35    29    31    1
    36    30    33    1
    37    30    32    1
    38    31    34    1
    39     1    35    1
    40     7    36    1
    41     8    37    1
    42    15    38    1
    43    16    39    1
    44    17    40    1
    45    18    41    1
    46    19    42    1
    47    22    43    1
    48    24    44    1
    49    25    45    1
    50    27    46    1
    51    27    47    1
    52    30    48    1
    53    32    49    1
    54    32    50    1
    55    32    51    1
    56    33    52    1
    57    33    53    1
    58    33    54    1
    59    34    55    1
    60    34    56    1
    61    34    57    1
@<TRIPOS>MOLECULE
01479498K
 57 61 0 0 0
SMALL
GASTEIGER

@<TRIPOS>ATOM
      1 C           3.0867    0.5892   -0.5730 C.3     1  LIG1        0.1526
      2 C           2.9481   -0.8915   -0.3655 C.2     1  LIG1        0.0278
      3 C           2.8805    1.0325   -2.0287 C.ar    1  LIG1        0.0009
      4 O           2.2635    1.3912    0.3183 O.3     1  LIG1       -0.4789
      5 C           1.8782   -1.4662    0.2144 C.2     1  LIG1        0.0016
      6 C           4.1861   -1.6752   -0.7881 C.2     1  LIG1        0.0721
      7 C           1.6479    1.5214   -2.5004 C.ar    1  LIG1       -0.0091
      8 C           3.9578    0.9188   -2.9449 C.ar    1  LIG1       -0.0511
      9 C           1.0606    0.8411    0.6679 C.ar    1  LIG1        0.1298
     10 C           0.7994   -0.5274    0.5919 C.ar    1  LIG1        0.0283
     11 C           1.8224   -2.9213    0.4666 C.ar    1  LIG1       -0.0165
     12 O           5.2101   -1.4584   -0.0792 O.co2   1  LIG1       -0.5448
     13 O           4.0656   -2.3631   -1.8393 O.co2   1  LIG1       -0.5448
     14 C           1.5421    1.8837   -3.8271 C.ar    1  LIG1        0.1666
     15 C           3.8214    1.2910   -4.2879 C.ar    1  LIG1       -0.0158
     16 C           0.0712    1.7304    1.0852 C.ar    1  LIG1       -0.0158
     17 C          -0.4963   -0.9848    0.8847 C.ar    1  LIG1       -0.0087
     18 C           2.0784   -3.4130    1.7511 C.ar    1  LIG1       -0.0505
     19 C           1.4240   -3.8083   -0.5363 C.ar    1  LIG1       -0.0505
     20 C           2.5995    1.7735   -4.6971 C.ar    1  LIG1        0.1662
     21 O           0.4228    2.3746   -4.4270 O.3     1  LIG1       -0.4526
     22 C          -1.2141    1.2608    1.3543 C.ar    1  LIG1       -0.0164
     23 C          -1.5151   -0.0955    1.2159 C.ar    1  LIG1        0.1217
     24 C           1.9028   -4.7703    2.0410 C.ar    1  LIG1       -0.0194
     25 C           1.2453   -5.1631   -0.2442 C.ar    1  LIG1       -0.0194
     26 O           2.2805    2.1793   -5.9561 O.3     1  LIG1       -0.4526
     27 C           0.8925    2.5262   -5.7799 C.3     1  LIG1        0.2332
     28 O          -2.8156   -0.4251    1.4581 O.3     1  LIG1       -0.4893
     29 C           1.4638   -5.6481    1.0480 C.ar    1  LIG1        0.1201
     30 C          -3.4432   -1.5332    0.7963 C.3     1  LIG1        0.0946
     31 O           1.2164   -6.9851    1.2113 O.3     1  LIG1       -0.4951
     32 C          -3.1430   -1.6835   -0.6960 C.3     1  LIG1       -0.0281
     33 C          -3.2964   -2.8282    1.5888 C.3     1  LIG1       -0.0281
     34 C           1.2933   -7.4849    2.5394 C.3     1  LIG1        0.0788
     35 H           4.1045    0.8916   -0.2939 H       1  LIG1        0.0837
     36 H           0.7832    1.6116   -1.8565 H       1  LIG1        0.0659
     37 H           4.9081    0.5026   -2.6069 H       1  LIG1        0.0623
     38 H           4.6469    1.1816   -4.9803 H       1  LIG1        0.0655
     39 H           0.2950    2.7903    1.1588 H       1  LIG1        0.0655
     40 H          -0.6895   -2.0476    0.8294 H       1  LIG1        0.0661
     41 H           2.4155   -2.7329    2.5300 H       1  LIG1        0.0625
     42 H           1.2627   -3.4427   -1.5481 H       1  LIG1        0.0625
     43 H          -1.9926    1.9609    1.6444 H       1  LIG1        0.0655
     44 H           2.1208   -5.1031    3.0489 H       1  LIG1        0.0654
     45 H           0.9352   -5.8411   -1.0340 H       1  LIG1        0.0654
     46 H           0.7526    3.5706   -6.0818 H       1  LIG1        0.1166
     47 H           0.2854    1.8901   -6.4346 H       1  LIG1        0.1166
     48 H          -4.5106   -1.2804    0.8454 H       1  LIG1        0.0727
     49 H          -2.1610   -2.1251   -0.8853 H       1  LIG1        0.0265
     50 H          -3.1719   -0.7122   -1.2004 H       1  LIG1        0.0265
     51 H          -3.8805   -2.3414   -1.1685 H       1  LIG1        0.0265
     52 H          -2.2693   -3.1983    1.6057 H       1  LIG1        0.0265
     53 H          -3.9285   -3.6162    1.1669 H       1  LIG1        0.0265
     54 H          -3.5899   -2.6686    2.6320 H       1  LIG1        0.0265
     55 H           0.9926   -8.5368    2.5183 H       1  LIG1        0.0660
     56 H           0.6007   -6.9575    3.2044 H       1  LIG1        0.0660
     57 H           2.3191   -7.4390    2.9187 H       1  LIG1        0.0660
@<TRIPOS>BOND
     1     1     4    1
     2     1     2    1
     3     1     3    1
     4     2     5    2
     5     2     6    1
     6     3     8   ar
     7     3     7   ar
     8     4     9    1
     9     5    10    1
    10     5    11    1
    11     6    13   ar
    12     6    12   ar
    13     7    14   ar
    14     8    15   ar
    15     9    16   ar
    16     9    10   ar
    17    10    17   ar
    18    11    18   ar
    19    11    19   ar
    20    14    21    1
    21    14    20   ar
    22    15    20   ar
    23    16    22   ar
    24    17    23   ar
    25    18    24   ar
    26    19    25   ar
    27    20    26    1
    28    21    27    1
    29    22    23   ar
    30    23    28    1
    31    24    29   ar
    32    25    29   ar
    33    26    27    1
    34    28    30    1
    35    29    31    1
    36    30    33    1
    37    30    32    1
    38    31    34    1
    39     1    35    1
    40     7    36    1
    41     8    37    1
    42    15    38    1
    43    16    39    1
    44    17    40    1
    45    18    41    1
    46    19    42    1
    47    22    43    1
    48    24    44    1
    49    25    45    1
    50    27    46    1
    51    27    47    1
    52    30    48    1
    53    32    49    1
    54    32    50    1
    55    32    51    1
    56    33    52    1
    57    33    53    1
    58    33    54    1
    59    34    55    1
    60    34    56    1
    61    34    57    1
@<TRIPOS>MOLECULE
01479498K
 57 61 0 0 0
SMALL
GASTEIGER

@<TRIPOS>ATOM
      1 C           3.2065    0.4772   -0.6008 C.3     1  LIG1        0.1526
      2 C           3.0695   -0.9864   -0.2896 C.2     1  LIG1        0.0278
      3 C           2.8840    0.9041   -2.0466 C.ar    1  LIG1        0.0009
      4 O           2.4044    1.2909    0.3048 O.3     1  LIG1       -0.4789
      5 C           1.9419   -1.5272    0.2121 C.2     1  LIG1        0.0016
      6 C           4.3529   -1.7831   -0.4988 C.2     1  LIG1        0.0721
      7 C           2.6427    2.2664   -2.3271 C.ar    1  LIG1       -0.0091
      8 C           2.8513   -0.0159   -3.1233 C.ar    1  LIG1       -0.0511
      9 C           1.1397    0.8055    0.5137 C.ar    1  LIG1        0.1298
     10 C           0.8470   -0.5595    0.4556 C.ar    1  LIG1        0.0283
     11 C           1.8456   -2.9714    0.5021 C.ar    1  LIG1       -0.0165
     12 O           4.3692   -2.5315   -1.5155 O.co2   1  LIG1       -0.5448
     13 O           5.2632   -1.5403    0.3428 O.co2   1  LIG1       -0.5448
     14 C           2.3459    2.6384   -3.6223 C.ar    1  LIG1        0.1666
     15 C           2.5591    0.3906   -4.4316 C.ar    1  LIG1       -0.0158
     16 C           0.1514    1.7335    0.8308 C.ar    1  LIG1       -0.0158
     17 C          -0.4744   -0.9777    0.6861 C.ar    1  LIG1       -0.0087
     18 C           2.1110   -3.4521    1.7874 C.ar    1  LIG1       -0.0505
     19 C           1.4102   -3.8606   -0.4847 C.ar    1  LIG1       -0.0505
     20 C           2.3034    1.7243   -4.6467 C.ar    1  LIG1        0.1662
     21 O           2.0651    3.9022   -4.0427 O.3     1  LIG1       -0.4526
     22 C          -1.1577    1.3011    1.0422 C.ar    1  LIG1       -0.0164
     23 C          -1.4848   -0.0541    0.9455 C.ar    1  LIG1        0.1217
     24 C           1.9095   -4.8028    2.0945 C.ar    1  LIG1       -0.0194
     25 C           1.2052   -5.2070   -0.1751 C.ar    1  LIG1       -0.0194
     26 O           1.9916    2.2944   -5.8418 O.3     1  LIG1       -0.4526
     27 C           1.8263    3.6695   -5.4447 C.3     1  LIG1        0.2332
     28 O          -2.8009   -0.3364    1.1622 O.3     1  LIG1       -0.4893
     29 C           1.4364   -5.6821    1.1181 C.ar    1  LIG1        0.1201
     30 C          -3.4280   -1.5104    0.6305 C.3     1  LIG1        0.0946
     31 O           1.1647   -7.0123    1.2973 O.3     1  LIG1       -0.4951
     32 C          -3.1440   -1.7964   -0.8438 C.3     1  LIG1       -0.0281
     33 C          -3.2698   -2.7215    1.5438 C.3     1  LIG1       -0.0281
     34 C           1.2805   -7.5085    2.6237 C.3     1  LIG1        0.0788
     35 H           4.2402    0.7937   -0.4120 H       1  LIG1        0.0837
     36 H           2.6727    3.0125   -1.5399 H       1  LIG1        0.0659
     37 H           3.0552   -1.0723   -2.9540 H       1  LIG1        0.0623
     38 H           2.5384   -0.3288   -5.2414 H       1  LIG1        0.0655
     39 H           0.3997    2.7878    0.8949 H       1  LIG1        0.0655
     40 H          -0.6851   -2.0377    0.6613 H       1  LIG1        0.0661
     41 H           2.4808   -2.7712    2.5508 H       1  LIG1        0.0625
     42 H           1.2379   -3.5030   -1.4967 H       1  LIG1        0.0625
     43 H          -1.9318    2.0276    1.2724 H       1  LIG1        0.0655
     44 H           2.1380   -5.1294    3.1022 H       1  LIG1        0.0654
     45 H           0.8667   -5.8870   -0.9510 H       1  LIG1        0.0654
     46 H           2.5211    4.2873   -6.0251 H       1  LIG1        0.1166
     47 H           0.8020    3.9805   -5.6814 H       1  LIG1        0.1166
     48 H          -4.4962   -1.2582    0.6674 H       1  LIG1        0.0727
     49 H          -2.1600   -2.2449   -1.0040 H       1  LIG1        0.0265
     50 H          -3.1856   -0.8746   -1.4339 H       1  LIG1        0.0265
     51 H          -3.8820   -2.4992   -1.2452 H       1  LIG1        0.0265
     52 H          -2.2444   -3.0937    1.5808 H       1  LIG1        0.0265
     53 H          -3.9104   -3.5442    1.2107 H       1  LIG1        0.0265
     54 H          -3.5464   -2.4601    2.5705 H       1  LIG1        0.0265
     55 H           0.9693   -8.5577    2.6157 H       1  LIG1        0.0660
     56 H           0.6144   -6.9723    3.3086 H       1  LIG1        0.0660
     57 H           2.3184   -7.4714    2.9697 H       1  LIG1        0.0660
@<TRIPOS>BOND
     1     1     4    1
     2     1     2    1
     3     1     3    1
     4     2     5    2
     5     2     6    1
     6     3     8   ar
     7     3     7   ar
     8     4     9    1
     9     5    10    1
    10     5    11    1
    11     6    13   ar
    12     6    12   ar
    13     7    14   ar
    14     8    15   ar
    15     9    16   ar
    16     9    10   ar
    17    10    17   ar
    18    11    18   ar
    19    11    19   ar
    20    14    21    1
    21    14    20   ar
    22    15    20   ar
    23    16    22   ar
    24    17    23   ar
    25    18    24   ar
    26    19    25   ar
    27    20    26    1
    28    21    27    1
    29    22    23   ar
    30    23    28    1
    31    24    29   ar
    32    25    29   ar
    33    26    27    1
    34    28    30    1
    35    29    31    1
    36    30    33    1
    37    30    32    1
    38    31    34    1
    39     1    35    1
    40     7    36    1
    41     8    37    1
    42    15    38    1
    43    16    39    1
    44    17    40    1
    45    18    41    1
    46    19    42    1
    47    22    43    1
    48    24    44    1
    49    25    45    1
    50    27    46    1
    51    27    47    1
    52    30    48    1
    53    32    49    1
    54    32    50    1
    55    32    51    1
    56    33    52    1
    57    33    53    1
    58    33    54    1
    59    34    55    1
    60    34    56    1
    61    34    57    1
@<TRIPOS>MOLECULE
01479498K
 57 61 0 0 0
SMALL
GASTEIGER

@<TRIPOS>ATOM
      1 C           3.1971    0.4851   -0.6049 C.3     1  LIG1        0.1526
      2 C           3.0657   -0.9775   -0.2888 C.2     1  LIG1        0.0278
      3 C           2.8748    0.9074   -2.0520 C.ar    1  LIG1        0.0009
      4 O           2.3913    1.2982    0.2970 O.3     1  LIG1       -0.4789
      5 C           1.9414   -1.5218    0.2169 C.2     1  LIG1        0.0016
      6 C           4.3522   -1.7696   -0.4963 C.2     1  LIG1        0.0721
      7 C           2.6348    2.2690   -2.3361 C.ar    1  LIG1       -0.0091
      8 C           2.8416   -0.0158   -3.1261 C.ar    1  LIG1       -0.0511
      9 C           1.1290    0.8078    0.5088 C.ar    1  LIG1        0.1298
     10 C           0.8418   -0.5590    0.4581 C.ar    1  LIG1        0.0283
     11 C           1.8617   -2.9662    0.5118 C.ar    1  LIG1       -0.0165
     12 O           5.2592   -1.5266    0.3489 O.co2   1  LIG1       -0.5448
     13 O           4.3735   -2.5167   -1.5138 O.co2   1  LIG1       -0.5448
     14 C           2.3392    2.6379   -3.6323 C.ar    1  LIG1        0.1666
     15 C           2.5509    0.3879   -4.4355 C.ar    1  LIG1       -0.0158
     16 C           0.1380    1.7341    0.8223 C.ar    1  LIG1       -0.0158
     17 C          -0.4772   -0.9808    0.6949 C.ar    1  LIG1       -0.0087
     18 C           2.2199   -3.4510    1.7729 C.ar    1  LIG1       -0.0505
     19 C           1.3754   -3.8563   -0.4503 C.ar    1  LIG1       -0.0505
     20 C           2.2966    1.7209   -4.6542 C.ar    1  LIG1        0.1662
     21 O           2.0602    3.9009   -4.0559 O.3     1  LIG1       -0.4526
     22 C          -1.1688    1.2983    1.0382 C.ar    1  LIG1       -0.0164
     23 C          -1.4906   -0.0588    0.9497 C.ar    1  LIG1        0.1217
     24 C           2.0736   -4.8092    2.0783 C.ar    1  LIG1       -0.0194
     25 C           1.2231   -5.2098   -0.1414 C.ar    1  LIG1       -0.0194
     26 O           1.9867    2.2887   -5.8512 O.3     1  LIG1       -0.4526
     27 C           1.8229    3.6651   -5.4577 C.3     1  LIG1        0.2332
     28 O          -2.8051   -0.3444    1.1708 O.3     1  LIG1       -0.4893
     29 C           1.5666   -5.6932    1.1235 C.ar    1  LIG1        0.1201
     30 C          -3.4317   -1.5162    0.6346 C.3     1  LIG1        0.0946
     31 O           1.3559   -7.0346    1.3014 O.3     1  LIG1       -0.4951
     32 C          -3.1444   -1.8004   -0.8392 C.3     1  LIG1       -0.0281
     33 C          -3.2755   -2.7289    1.5463 C.3     1  LIG1       -0.0281
     34 C           1.8215   -7.5912    2.5230 C.3     1  LIG1        0.0788
     35 H           4.2296    0.8056   -0.4159 H       1  LIG1        0.0837
     36 H           2.6653    3.0169   -1.5507 H       1  LIG1        0.0659
     37 H           3.0447   -1.0718   -2.9538 H       1  LIG1        0.0623
     38 H           2.5302   -0.3334   -5.2435 H       1  LIG1        0.0655
     39 H           0.3829    2.7897    0.8804 H       1  LIG1        0.0655
     40 H          -0.6844   -2.0416    0.6790 H       1  LIG1        0.0661
     41 H           2.6262   -2.7685    2.5162 H       1  LIG1        0.0625
     42 H           1.1288   -3.4953   -1.4456 H       1  LIG1        0.0625
     43 H          -1.9453    2.0234    1.2652 H       1  LIG1        0.0655
     44 H           2.3708   -5.1370    3.0675 H       1  LIG1        0.0654
     45 H           0.8496   -5.8916   -0.8996 H       1  LIG1        0.0654
     46 H           2.5192    4.2806   -6.0389 H       1  LIG1        0.1166
     47 H           0.7992    3.9769   -5.6965 H       1  LIG1        0.1166
     48 H          -4.5000   -1.2642    0.6700 H       1  LIG1        0.0727
     49 H          -2.1592   -2.2465   -0.9977 H       1  LIG1        0.0265
     50 H          -3.1870   -0.8782   -1.4283 H       1  LIG1        0.0265
     51 H          -3.8802   -2.5042   -1.2427 H       1  LIG1        0.0265
     52 H          -2.2501   -3.1020    1.5835 H       1  LIG1        0.0265
     53 H          -3.9166   -3.5510    1.2116 H       1  LIG1        0.0265
     54 H          -3.5527   -2.4688    2.5737 H       1  LIG1        0.0265
     55 H           1.6306   -8.6684    2.4927 H       1  LIG1        0.0660
     56 H           1.2716   -7.1822    3.3770 H       1  LIG1        0.0660
     57 H           2.9008   -7.4479    2.6400 H       1  LIG1        0.0660
@<TRIPOS>BOND
     1     1     4    1
     2     1     2    1
     3     1     3    1
     4     2     5    2
     5     2     6    1
     6     3     8   ar
     7     3     7   ar
     8     4     9    1
     9     5    10    1
    10     5    11    1
    11     6    13   ar
    12     6    12   ar
    13     7    14   ar
    14     8    15   ar
    15     9    16   ar
    16     9    10   ar
    17    10    17   ar
    18    11    18   ar
    19    11    19   ar
    20    14    21    1
    21    14    20   ar
    22    15    20   ar
    23    16    22   ar
    24    17    23   ar
    25    18    24   ar
    26    19    25   ar
    27    20    26    1
    28    21    27    1
    29    22    23   ar
    30    23    28    1
    31    24    29   ar
    32    25    29   ar
    33    26    27    1
    34    28    30    1
    35    29    31    1
    36    30    33    1
    37    30    32    1
    38    31    34    1
    39     1    35    1
    40     7    36    1
    41     8    37    1
    42    15    38    1
    43    16    39    1
    44    17    40    1
    45    18    41    1
    46    19    42    1
    47    22    43    1
    48    24    44    1
    49    25    45    1
    50    27    46    1
    51    27    47    1
    52    30    48    1
    53    32    49    1
    54    32    50    1
    55    32    51    1
    56    33    52    1
    57    33    53    1
    58    33    54    1
    59    34    55    1
    60    34    56    1
    61    34    57    1
@<TRIPOS>MOLECULE
01479498K
 57 61 0 0 0
SMALL
GASTEIGER

@<TRIPOS>ATOM
      1 C           3.2060    0.4845   -0.6082 C.3     1  LIG1        0.1526
      2 C           3.0745   -0.9797   -0.2941 C.2     1  LIG1        0.0278
      3 C           2.8777    0.9073   -2.0547 C.ar    1  LIG1        0.0009
      4 O           2.4054    1.2978    0.2990 O.3     1  LIG1       -0.4789
      5 C           1.9523   -1.5223    0.2170 C.2     1  LIG1        0.0016
      6 C           4.3571   -1.7750   -0.5163 C.2     1  LIG1        0.0721
      7 C           2.6105    2.2649   -2.3353 C.ar    1  LIG1       -0.0091
      8 C           2.8693   -0.0114   -3.1330 C.ar    1  LIG1       -0.0511
      9 C           1.1438    0.8088    0.5165 C.ar    1  LIG1        0.1298
     10 C           0.8563   -0.5576    0.4676 C.ar    1  LIG1        0.0283
     11 C           1.8573   -2.9682    0.5010 C.ar    1  LIG1       -0.0165
     12 O           5.2844   -1.5125    0.3008 O.co2   1  LIG1       -0.5448
     13 O           4.3557   -2.5425   -1.5186 O.co2   1  LIG1       -0.5448
     14 C           2.3140    2.6320   -3.6324 C.ar    1  LIG1        0.1666
     15 C           2.5769    0.3907   -4.4423 C.ar    1  LIG1       -0.0158
     16 C           0.1530    1.7348    0.8328 C.ar    1  LIG1       -0.0158
     17 C          -0.4614   -0.9794    0.7093 C.ar    1  LIG1       -0.0087
     18 C           2.1497   -3.4597    1.7762 C.ar    1  LIG1       -0.0505
     19 C           1.3941   -3.8474   -0.4821 C.ar    1  LIG1       -0.0505
     20 C           2.2956    1.7203   -4.6573 C.ar    1  LIG1        0.1662
     21 O           2.0108    3.8912   -4.0521 O.3     1  LIG1       -0.4526
     22 C          -1.1541    1.2990    1.0504 C.ar    1  LIG1       -0.0164
     23 C          -1.4753   -0.0580    0.9623 C.ar    1  LIG1        0.1217
     24 C           1.9440   -4.8111    2.0783 C.ar    1  LIG1       -0.0194
     25 C           1.1858   -5.1941   -0.1777 C.ar    1  LIG1       -0.0194
     26 O           1.9815    2.2847   -5.8541 O.3     1  LIG1       -0.4526
     27 C           1.7879    3.6562   -5.4565 C.3     1  LIG1        0.2332
     28 O          -2.7898   -0.3476    1.1793 O.3     1  LIG1       -0.4893
     29 C           1.4395   -5.6790    1.1073 C.ar    1  LIG1        0.1201
     30 C          -3.4113   -1.5146    0.6252 C.3     1  LIG1        0.0946
     31 O           1.1595   -7.0075    1.2847 O.3     1  LIG1       -0.4951
     32 C          -3.0992   -1.7969   -0.8443 C.3     1  LIG1       -0.0281
     33 C          -3.2741   -2.7308    1.5356 C.3     1  LIG1       -0.0281
     34 C           1.2296   -7.4945    2.6177 C.3     1  LIG1        0.0788
     35 H           4.2394    0.8048   -0.4242 H       1  LIG1        0.0837
     36 H           2.6218    3.0109   -1.5476 H       1  LIG1        0.0659
     37 H           3.0929   -1.0638   -2.9647 H       1  LIG1        0.0623
     38 H           2.5760   -0.3278   -5.2531 H       1  LIG1        0.0655
     39 H           0.3974    2.7906    0.8896 H       1  LIG1        0.0655
     40 H          -0.6686   -2.0402    0.6966 H       1  LIG1        0.0661
     41 H           2.5426   -2.7872    2.5357 H       1  LIG1        0.0625
     42 H           1.2011   -3.4808   -1.4872 H       1  LIG1        0.0625
     43 H          -1.9307    2.0239    1.2768 H       1  LIG1        0.0655
     44 H           2.1952   -5.1482    3.0773 H       1  LIG1        0.0654
     45 H           0.8244   -5.8658   -0.9503 H       1  LIG1        0.0654
     46 H           2.4759    4.2875   -6.0304 H       1  LIG1        0.1166
     47 H           0.7599    3.9485   -5.7014 H       1  LIG1        0.1166
     48 H          -4.4791   -1.2591    0.6420 H       1  LIG1        0.0727
     49 H          -2.1184   -2.2583   -0.9856 H       1  LIG1        0.0265
     50 H          -3.1165   -0.8725   -1.4310 H       1  LIG1        0.0265
     51 H          -3.8367   -2.4889   -1.2649 H       1  LIG1        0.0265
     52 H          -2.2458   -3.0901    1.6106 H       1  LIG1        0.0265
     53 H          -3.8925   -3.5589    1.1742 H       1  LIG1        0.0265
     54 H          -3.5926   -2.4791    2.5531 H       1  LIG1        0.0265
     55 H           0.8878   -8.5343    2.6112 H       1  LIG1        0.0660
     56 H           0.5641   -6.9328    3.2828 H       1  LIG1        0.0660
     57 H           2.2600   -7.4846    2.9871 H       1  LIG1        0.0660
@<TRIPOS>BOND
     1     1     4    1
     2     1     2    1
     3     1     3    1
     4     2     5    2
     5     2     6    1
     6     3     8   ar
     7     3     7   ar
     8     4     9    1
     9     5    10    1
    10     5    11    1
    11     6    13   ar
    12     6    12   ar
    13     7    14   ar
    14     8    15   ar
    15     9    16   ar
    16     9    10   ar
    17    10    17   ar
    18    11    18   ar
    19    11    19   ar
    20    14    21    1
    21    14    20   ar
    22    15    20   ar
    23    16    22   ar
    24    17    23   ar
    25    18    24   ar
    26    19    25   ar
    27    20    26    1
    28    21    27    1
    29    22    23   ar
    30    23    28    1
    31    24    29   ar
    32    25    29   ar
    33    26    27    1
    34    28    30    1
    35    29    31    1
    36    30    33    1
    37    30    32    1
    38    31    34    1
    39     1    35    1
    40     7    36    1
    41     8    37    1
    42    15    38    1
    43    16    39    1
    44    17    40    1
    45    18    41    1
    46    19    42    1
    47    22    43    1
    48    24    44    1
    49    25    45    1
    50    27    46    1
    51    27    47    1
    52    30    48    1
    53    32    49    1
    54    32    50    1
    55    32    51    1
    56    33    52    1
    57    33    53    1
    58    33    54    1
    59    34    55    1
    60    34    56    1
    61    34    57    1
@<TRIPOS>MOLECULE
01479498K
 57 61 0 0 0
SMALL
GASTEIGER

@<TRIPOS>ATOM
      1 C           3.1976    0.4812   -0.6108 C.3     1  LIG1        0.1526
      2 C           3.0647   -0.9815   -0.2992 C.2     1  LIG1        0.0278
      3 C           2.8738    0.9082   -2.0563 C.ar    1  LIG1        0.0009
      4 O           2.3936    1.2924    0.2941 O.3     1  LIG1       -0.4789
      5 C           1.9404   -1.5272    0.2053 C.2     1  LIG1        0.0016
      6 C           4.3509   -1.7742   -0.5115 C.2     1  LIG1        0.0721
      7 C           2.6383    2.2715   -2.3365 C.ar    1  LIG1       -0.0091
      8 C           2.8344   -0.0121   -3.1325 C.ar    1  LIG1       -0.0511
      9 C           1.1315    0.8019    0.5068 C.ar    1  LIG1        0.1298
     10 C           0.8420   -0.5645    0.4534 C.ar    1  LIG1        0.0283
     11 C           1.8647   -2.9746    0.4854 C.ar    1  LIG1       -0.0165
     12 O           5.2552   -1.5422    0.3404 O.co2   1  LIG1       -0.5448
     13 O           4.3740   -2.5118   -1.5351 O.co2   1  LIG1       -0.5448
     14 C           2.3414    2.6445   -3.6311 C.ar    1  LIG1        0.1666
     15 C           2.5421    0.3957   -4.4402 C.ar    1  LIG1       -0.0158
     16 C           0.1431    1.7297    0.8257 C.ar    1  LIG1       -0.0158
     17 C          -0.4761   -0.9847    0.6949 C.ar    1  LIG1       -0.0087
     18 C           2.2921   -3.4819    1.7158 C.ar    1  LIG1       -0.0505
     19 C           1.3317   -3.8485   -0.4680 C.ar    1  LIG1       -0.0505
     20 C           2.2929    1.7303   -4.6553 C.ar    1  LIG1        0.1662
     21 O           2.0662    3.9097   -4.0512 O.3     1  LIG1       -0.4526
     22 C          -1.1632    1.2959    1.0443 C.ar    1  LIG1       -0.0164
     23 C          -1.4876   -0.0611    0.9550 C.ar    1  LIG1        0.1217
     24 C           2.1820   -4.8485    1.9955 C.ar    1  LIG1       -0.0194
     25 C           1.2127   -5.2103   -0.1835 C.ar    1  LIG1       -0.0194
     26 O           1.9822    2.3018   -5.8503 O.3     1  LIG1       -0.4526
     27 C           1.8242    3.6780   -5.4527 C.3     1  LIG1        0.2332
     28 O          -2.8015   -0.3445    1.1805 O.3     1  LIG1       -0.4893
     29 C           1.6456   -5.7180    1.0430 C.ar    1  LIG1        0.1201
     30 C          -3.4334   -1.5127    0.6438 C.3     1  LIG1        0.0946
     31 O           1.4796   -7.0682    1.2030 O.3     1  LIG1       -0.4951
     32 C          -3.1520   -1.7942   -0.8313 C.3     1  LIG1       -0.0281
     33 C          -3.2772   -2.7277    1.5521 C.3     1  LIG1       -0.0281
     34 C           2.2912   -7.6729    2.2016 C.3     1  LIG1        0.0788
     35 H           4.2307    0.8001   -0.4222 H       1  LIG1        0.0837
     36 H           2.6734    3.0173   -1.5494 H       1  LIG1        0.0659
     37 H           3.0332   -1.0696   -2.9631 H       1  LIG1        0.0623
     38 H           2.5166   -0.3239   -5.2500 H       1  LIG1        0.0655
     39 H           0.3897    2.7842    0.8854 H       1  LIG1        0.0655
     40 H          -0.6858   -2.0449    0.6799 H       1  LIG1        0.0661
     41 H           2.7297   -2.8112    2.4519 H       1  LIG1        0.0625
     42 H           1.0282   -3.4688   -1.4401 H       1  LIG1        0.0625
     43 H          -1.9382    2.0214    1.2759 H       1  LIG1        0.0655
     44 H           2.5269   -5.1973    2.9616 H       1  LIG1        0.0654
     45 H           0.8072   -5.8807   -0.9355 H       1  LIG1        0.0654
     46 H           2.5214    4.2923   -6.0343 H       1  LIG1        0.1166
     47 H           0.8013    3.9940   -5.6884 H       1  LIG1        0.1166
     48 H          -4.5010   -1.2579    0.6838 H       1  LIG1        0.0727
     49 H          -2.1679   -2.2414   -0.9945 H       1  LIG1        0.0265
     50 H          -3.1953   -0.8704   -1.4185 H       1  LIG1        0.0265
     51 H          -3.8906   -2.4961   -1.2341 H       1  LIG1        0.0265
     52 H          -2.2529   -3.1049    1.5832 H       1  LIG1        0.0265
     53 H          -3.9233   -3.5468    1.2191 H       1  LIG1        0.0265
     54 H          -3.5481   -2.4688    2.5817 H       1  LIG1        0.0265
     55 H           2.1988   -8.7582    2.0933 H       1  LIG1        0.0660
     56 H           1.9390   -7.4089    3.2041 H       1  LIG1        0.0660
     57 H           3.3484   -7.4151    2.0726 H       1  LIG1        0.0660
@<TRIPOS>BOND
     1     1     4    1
     2     1     2    1
     3     1     3    1
     4     2     5    2
     5     2     6    1
     6     3     8   ar
     7     3     7   ar
     8     4     9    1
     9     5    10    1
    10     5    11    1
    11     6    13   ar
    12     6    12   ar
    13     7    14   ar
    14     8    15   ar
    15     9    16   ar
    16     9    10   ar
    17    10    17   ar
    18    11    18   ar
    19    11    19   ar
    20    14    21    1
    21    14    20   ar
    22    15    20   ar
    23    16    22   ar
    24    17    23   ar
    25    18    24   ar
    26    19    25   ar
    27    20    26    1
    28    21    27    1
    29    22    23   ar
    30    23    28    1
    31    24    29   ar
    32    25    29   ar
    33    26    27    1
    34    28    30    1
    35    29    31    1
    36    30    33    1
    37    30    32    1
    38    31    34    1
    39     1    35    1
    40     7    36    1
    41     8    37    1
    42    15    38    1
    43    16    39    1
    44    17    40    1
    45    18    41    1
    46    19    42    1
    47    22    43    1
    48    24    44    1
    49    25    45    1
    50    27    46    1
    51    27    47    1
    52    30    48    1
    53    32    49    1
    54    32    50    1
    55    32    51    1
    56    33    52    1
    57    33    53    1
    58    33    54    1
    59    34    55    1
    60    34    56    1
    61    34    57    1
@<TRIPOS>MOLECULE
01479498K
 57 61 0 0 0
SMALL
GASTEIGER

@<TRIPOS>ATOM
      1 C           3.1514    0.5162   -0.5949 C.3     1  LIG1        0.1526
      2 C           2.9994   -0.9512   -0.3291 C.2     1  LIG1        0.0278
      3 C           2.9205    0.9550   -2.0430 C.ar    1  LIG1        0.0009
      4 O           2.3144    1.3586    0.2392 O.3     1  LIG1       -0.4789
      5 C           1.9141   -1.4951    0.2521 C.2     1  LIG1        0.0016
      6 C           4.2281   -1.7573   -0.7336 C.2     1  LIG1        0.0721
      7 C           1.9000    0.3931   -2.8341 C.ar    1  LIG1       -0.0091
      8 C           3.7024    2.0081   -2.5808 C.ar    1  LIG1       -0.0511
      9 C           1.0854    0.8386    0.5396 C.ar    1  LIG1        0.1298
     10 C           0.8277   -0.5346    0.5543 C.ar    1  LIG1        0.0283
     11 C           1.8315   -2.9459    0.5168 C.ar    1  LIG1       -0.0165
     12 O           5.2263   -1.6056    0.0275 O.co2   1  LIG1       -0.5448
     13 O           4.1146   -2.4121   -1.8052 O.co2   1  LIG1       -0.5448
     14 C           1.7046    0.8880   -4.1057 C.ar    1  LIG1        0.1666
     15 C           3.4848    2.4873   -3.8774 C.ar    1  LIG1       -0.0158
     16 C           0.0833    1.7531    0.8558 C.ar    1  LIG1       -0.0158
     17 C          -0.4743   -0.9728    0.8502 C.ar    1  LIG1       -0.0087
     18 C           2.0812   -3.4366    1.8021 C.ar    1  LIG1       -0.0505
     19 C           1.4216   -3.8305   -0.4846 C.ar    1  LIG1       -0.0505
     20 C           2.4761    1.9064   -4.6130 C.ar    1  LIG1        0.1662
     21 O           0.7568    0.4660   -4.9859 O.3     1  LIG1       -0.4526
     22 C          -1.2074    1.3007    1.1300 C.ar    1  LIG1       -0.0164
     23 C          -1.5003   -0.0641    1.0941 C.ar    1  LIG1        0.1217
     24 C           1.8900   -4.7921    2.0941 C.ar    1  LIG1       -0.0194
     25 C           1.2271   -5.1819   -0.1902 C.ar    1  LIG1       -0.0194
     26 O           2.1152    2.2502   -5.8796 O.3     1  LIG1       -0.4526
     27 C           1.0517    1.3049   -6.1173 C.3     1  LIG1        0.2332
     28 O          -2.8015   -0.3823    1.3489 O.3     1  LIG1       -0.4893
     29 C           1.4425   -5.6670    1.1022 C.ar    1  LIG1        0.1201
     30 C          -3.4256   -1.5165    0.7278 C.3     1  LIG1        0.0946
     31 O           1.1827   -7.0015    1.2656 O.3     1  LIG1       -0.4951
     32 C          -3.1027   -1.7344   -0.7510 C.3     1  LIG1       -0.0281
     33 C          -3.2973   -2.7760    1.5783 C.3     1  LIG1       -0.0281
     34 C           1.2851   -7.5091    2.5888 C.3     1  LIG1        0.0788
     35 H           4.1750    0.8007   -0.3182 H       1  LIG1        0.0837
     36 H           1.2789   -0.4153   -2.4648 H       1  LIG1        0.0659
     37 H           4.4888    2.4542   -1.9748 H       1  LIG1        0.0623
     38 H           4.0881    3.2879   -4.2867 H       1  LIG1        0.0655
     39 H           0.3047    2.8159    0.8600 H       1  LIG1        0.0655
     40 H          -0.6664   -2.0373    0.8709 H       1  LIG1        0.0661
     41 H           2.4288   -2.7590    2.5791 H       1  LIG1        0.0625
     42 H           1.2659   -3.4661   -1.4971 H       1  LIG1        0.0625
     43 H          -1.9931    2.0169    1.3502 H       1  LIG1        0.0655
     44 H           2.1046   -5.1254    3.1024 H       1  LIG1        0.0654
     45 H           0.9101   -5.8576   -0.9787 H       1  LIG1        0.0654
     46 H           0.1453    1.8615   -6.3838 H       1  LIG1        0.1166
     47 H           1.3309    0.6682   -6.9646 H       1  LIG1        0.1166
     48 H          -4.4925   -1.2565    0.7500 H       1  LIG1        0.0727
     49 H          -2.1148   -2.1765   -0.9037 H       1  LIG1        0.0265
     50 H          -3.1292   -0.7870   -1.3000 H       1  LIG1        0.0265
     51 H          -3.8292   -2.4173   -1.2033 H       1  LIG1        0.0265
     52 H          -2.2755   -3.1587    1.6135 H       1  LIG1        0.0265
     53 H          -3.9381   -3.5739    1.1895 H       1  LIG1        0.0265
     54 H          -3.5913   -2.5673    2.6124 H       1  LIG1        0.0265
     55 H           0.9854   -8.5617    2.5665 H       1  LIG1        0.0660
     56 H           0.6040   -6.9867    3.2691 H       1  LIG1        0.0660
     57 H           2.3179   -7.4644    2.9493 H       1  LIG1        0.0660
@<TRIPOS>BOND
     1     1     4    1
     2     1     2    1
     3     1     3    1
     4     2     5    2
     5     2     6    1
     6     3     8   ar
     7     3     7   ar
     8     4     9    1
     9     5    10    1
    10     5    11    1
    11     6    13   ar
    12     6    12   ar
    13     7    14   ar
    14     8    15   ar
    15     9    16   ar
    16     9    10   ar
    17    10    17   ar
    18    11    18   ar
    19    11    19   ar
    20    14    21    1
    21    14    20   ar
    22    15    20   ar
    23    16    22   ar
    24    17    23   ar
    25    18    24   ar
    26    19    25   ar
    27    20    26    1
    28    21    27    1
    29    22    23   ar
    30    23    28    1
    31    24    29   ar
    32    25    29   ar
    33    26    27    1
    34    28    30    1
    35    29    31    1
    36    30    33    1
    37    30    32    1
    38    31    34    1
    39     1    35    1
    40     7    36    1
    41     8    37    1
    42    15    38    1
    43    16    39    1
    44    17    40    1
    45    18    41    1
    46    19    42    1
    47    22    43    1
    48    24    44    1
    49    25    45    1
    50    27    46    1
    51    27    47    1
    52    30    48    1
    53    32    49    1
    54    32    50    1
    55    32    51    1
    56    33    52    1
    57    33    53    1
    58    33    54    1
    59    34    55    1
    60    34    56    1
    61    34    57    1
@<TRIPOS>MOLECULE
01479498K
 57 61 0 0 0
SMALL
GASTEIGER

@<TRIPOS>ATOM
      1 C           3.1170    0.5478   -0.5103 C.3     1  LIG1        0.1526
      2 C           2.9481   -0.9316   -0.3118 C.2     1  LIG1        0.0278
      3 C           2.9046    1.0031   -1.9630 C.ar    1  LIG1        0.0009
      4 O           2.3212    1.3549    0.4023 O.3     1  LIG1       -0.4789
      5 C           1.8612   -1.4836    0.2590 C.2     1  LIG1        0.0016
      6 C           4.1623   -1.7404   -0.7578 C.2     1  LIG1        0.0721
      7 C           1.6715    1.4958   -2.4296 C.ar    1  LIG1       -0.0091
      8 C           3.9768    0.8868   -2.8850 C.ar    1  LIG1       -0.0511
      9 C           1.0916    0.8390    0.7136 C.ar    1  LIG1        0.1298
     10 C           0.7946   -0.5216    0.6117 C.ar    1  LIG1        0.0283
     11 C           1.7698   -2.9391    0.4937 C.ar    1  LIG1       -0.0165
     12 O           3.9958   -2.4526   -1.7872 O.co2   1  LIG1       -0.5448
     13 O           5.2138   -1.5178   -0.0927 O.co2   1  LIG1       -0.5448
     14 C           1.5592    1.8594   -3.7549 C.ar    1  LIG1        0.1666
     15 C           3.8343    1.2614   -4.2267 C.ar    1  LIG1       -0.0158
     16 C           0.1115    1.7591    1.0849 C.ar    1  LIG1       -0.0158
     17 C          -0.5302   -0.9384    0.8164 C.ar    1  LIG1       -0.0087
     18 C           2.1048   -3.4698    1.7425 C.ar    1  LIG1       -0.0505
     19 C           1.2799   -3.7906   -0.5015 C.ar    1  LIG1       -0.0505
     20 C           2.6120    1.7469   -4.6303 C.ar    1  LIG1        0.1662
     21 O           0.4376    2.3514   -4.3489 O.3     1  LIG1       -0.4526
     22 C          -1.2056    1.3345    1.2511 C.ar    1  LIG1       -0.0164
     23 C          -1.5395   -0.0079    1.0673 C.ar    1  LIG1        0.1217
     24 C           1.9145   -4.8298    2.0006 C.ar    1  LIG1       -0.0194
     25 C           1.0832   -5.1507   -0.2393 C.ar    1  LIG1       -0.0194
     26 O           2.2869    2.1535   -5.8876 O.3     1  LIG1       -0.4526
     27 C           0.9006    2.5039   -5.7040 C.3     1  LIG1        0.2332
     28 O          -2.8775   -0.2850    1.1295 O.3     1  LIG1       -0.4893
     29 C           1.3798   -5.6711    1.0216 C.ar    1  LIG1        0.1201
     30 C          -3.3541   -1.4730    0.4796 C.3     1  LIG1        0.0946
     31 O           1.2040   -6.9722    1.4120 O.3     1  LIG1       -0.4951
     32 C          -4.8457   -1.5613    0.8019 C.3     1  LIG1       -0.0281
     33 C          -3.1774   -1.4152   -1.0405 C.3     1  LIG1       -0.0281
     34 C           0.4212   -7.7846    0.5473 C.3     1  LIG1        0.0788
     35 H           4.1436    0.8276   -0.2402 H       1  LIG1        0.0837
     36 H           0.8079    1.5869   -1.7843 H       1  LIG1        0.0659
     37 H           4.9271    0.4671   -2.5523 H       1  LIG1        0.0623
     38 H           4.6560    1.1503   -4.9237 H       1  LIG1        0.0655
     39 H           0.3653    2.8106    1.1768 H       1  LIG1        0.0655
     40 H          -0.7619   -1.9935    0.7273 H       1  LIG1        0.0661
     41 H           2.5165   -2.8241    2.5139 H       1  LIG1        0.0625
     42 H           1.0674   -3.3908   -1.4910 H       1  LIG1        0.0625
     43 H          -1.9815    2.0600    1.4769 H       1  LIG1        0.0655
     44 H           2.1809   -5.2317    2.9736 H       1  LIG1        0.0654
     45 H           0.7144   -5.7710   -1.0473 H       1  LIG1        0.0654
     46 H           0.7617    3.5489   -6.0036 H       1  LIG1        0.1166
     47 H           0.2884    1.8703   -6.3563 H       1  LIG1        0.1166
     48 H          -2.8729   -2.3625    0.9019 H       1  LIG1        0.0727
     49 H          -5.3808   -0.6862    0.4160 H       1  LIG1        0.0265
     50 H          -5.0040   -1.5753    1.8852 H       1  LIG1        0.0265
     51 H          -5.2938   -2.4622    0.3711 H       1  LIG1        0.0265
     52 H          -3.5819   -0.4817   -1.4473 H       1  LIG1        0.0265
     53 H          -3.6773   -2.2586   -1.5278 H       1  LIG1        0.0265
     54 H          -2.1226   -1.4505   -1.3293 H       1  LIG1        0.0265
     55 H           0.2667   -8.7476    1.0436 H       1  LIG1        0.0660
     56 H           0.9441   -7.9761   -0.3947 H       1  LIG1        0.0660
     57 H          -0.5653   -7.3424    0.3703 H       1  LIG1        0.0660
@<TRIPOS>BOND
     1     1     4    1
     2     1     2    1
     3     1     3    1
     4     2     5    2
     5     2     6    1
     6     3     8   ar
     7     3     7   ar
     8     4     9    1
     9     5    10    1
    10     5    11    1
    11     6    13   ar
    12     6    12   ar
    13     7    14   ar
    14     8    15   ar
    15     9    16   ar
    16     9    10   ar
    17    10    17   ar
    18    11    18   ar
    19    11    19   ar
    20    14    21    1
    21    14    20   ar
    22    15    20   ar
    23    16    22   ar
    24    17    23   ar
    25    18    24   ar
    26    19    25   ar
    27    20    26    1
    28    21    27    1
    29    22    23   ar
    30    23    28    1
    31    24    29   ar
    32    25    29   ar
    33    26    27    1
    34    28    30    1
    35    29    31    1
    36    30    33    1
    37    30    32    1
    38    31    34    1
    39     1    35    1
    40     7    36    1
    41     8    37    1
    42    15    38    1
    43    16    39    1
    44    17    40    1
    45    18    41    1
    46    19    42    1
    47    22    43    1
    48    24    44    1
    49    25    45    1
    50    27    46    1
    51    27    47    1
    52    30    48    1
    53    32    49    1
    54    32    50    1
    55    32    51    1
    56    33    52    1
    57    33    53    1
    58    33    54    1
    59    34    55    1
    60    34    56    1
    61    34    57    1
@<TRIPOS>MOLECULE
01479498K
 57 61 0 0 0
SMALL
GASTEIGER

@<TRIPOS>ATOM
      1 C           3.1876    0.4651   -0.5355 C.3     1  LIG1        0.1526
      2 C           2.9974   -0.9992   -0.2749 C.2     1  LIG1        0.0278
      3 C           2.9438    0.9207   -1.9782 C.ar    1  LIG1        0.0009
      4 O           2.3854    1.3171    0.3256 O.3     1  LIG1       -0.4789
      5 C           1.8910   -1.5129    0.2949 C.2     1  LIG1        0.0016
      6 C           4.1969   -1.8373   -0.6970 C.2     1  LIG1        0.0721
      7 C           1.9291    0.3555   -2.7747 C.ar    1  LIG1       -0.0091
      8 C           3.7087    1.9916   -2.5040 C.ar    1  LIG1       -0.0511
      9 C           1.1254    0.8420    0.5734 C.ar    1  LIG1        0.1298
     10 C           0.8220   -0.5230    0.5637 C.ar    1  LIG1        0.0283
     11 C           1.7672   -2.9626    0.5434 C.ar    1  LIG1       -0.0165
     12 O           4.0398   -2.5143   -1.7493 O.co2   1  LIG1       -0.5448
     13 O           5.2229   -1.6887    0.0270 O.co2   1  LIG1       -0.5448
     14 C           1.7225    0.8653   -4.0389 C.ar    1  LIG1        0.1666
     15 C           3.4809    2.4846   -3.7939 C.ar    1  LIG1       -0.0158
     16 C           0.1405    1.7926    0.8348 C.ar    1  LIG1       -0.0158
     17 C          -0.5101   -0.9172    0.7656 C.ar    1  LIG1       -0.0087
     18 C           2.0965   -3.4950    1.7929 C.ar    1  LIG1       -0.0505
     19 C           1.2639   -3.8089   -0.4500 C.ar    1  LIG1       -0.0505
     20 C           2.4779    1.9000   -4.5348 C.ar    1  LIG1        0.1662
     21 O           0.7767    0.4411   -4.9216 O.3     1  LIG1       -0.4526
     22 C          -1.1823    1.3870    1.0034 C.ar    1  LIG1       -0.0164
     23 C          -1.5188    0.0346    0.9269 C.ar    1  LIG1        0.1217
     24 C           1.8888   -4.8527    2.0519 C.ar    1  LIG1       -0.0194
     25 C           1.0507   -5.1660   -0.1867 C.ar    1  LIG1       -0.0194
     26 O           2.1087    2.2547   -5.7955 O.3     1  LIG1       -0.4526
     27 C           1.0561    1.2993   -6.0421 C.3     1  LIG1        0.2332
     28 O          -2.8586   -0.2334    1.0027 O.3     1  LIG1       -0.4893
     29 C           1.3447   -5.6889    1.0738 C.ar    1  LIG1        0.1201
     30 C          -3.3346   -1.4608    0.4313 C.3     1  LIG1        0.0946
     31 O           1.1570   -6.9884    1.4647 O.3     1  LIG1       -0.4951
     32 C          -4.8220   -1.5392    0.7728 C.3     1  LIG1       -0.0281
     33 C          -3.1686   -1.4878   -1.0893 C.3     1  LIG1       -0.0281
     34 C           0.4099   -7.8096    0.5767 C.3     1  LIG1        0.0788
     35 H           4.2227    0.7220   -0.2752 H       1  LIG1        0.0837
     36 H           1.3197   -0.4670   -2.4166 H       1  LIG1        0.0659
     37 H           4.4899    2.4410   -1.8938 H       1  LIG1        0.0623
     38 H           4.0718    3.2987   -4.1943 H       1  LIG1        0.0655
     39 H           0.3996    2.8463    0.8575 H       1  LIG1        0.0655
     40 H          -0.7463   -1.9748    0.7540 H       1  LIG1        0.0661
     41 H           2.5211   -2.8541    2.5608 H       1  LIG1        0.0625
     42 H           1.0566   -3.4098   -1.4400 H       1  LIG1        0.0625
     43 H          -1.9589    2.1304    1.1562 H       1  LIG1        0.0655
     44 H           2.1536   -5.2571    3.0242 H       1  LIG1        0.0654
     45 H           0.6728   -5.7816   -0.9937 H       1  LIG1        0.0654
     46 H           0.1420    1.8476   -6.2975 H       1  LIG1        0.1166
     47 H           1.3400    0.6775   -6.8987 H       1  LIG1        0.1166
     48 H          -2.8460   -2.3221    0.8995 H       1  LIG1        0.0727
     49 H          -5.3668   -0.6864    0.3500 H       1  LIG1        0.0265
     50 H          -4.9696   -1.4999    1.8579 H       1  LIG1        0.0265
     51 H          -5.2707   -2.4631    0.3929 H       1  LIG1        0.0265
     52 H          -3.5885   -0.5837   -1.5464 H       1  LIG1        0.0265
     53 H          -3.6602   -2.3641   -1.5257 H       1  LIG1        0.0265
     54 H          -2.1142   -1.5243   -1.3820 H       1  LIG1        0.0265
     55 H           0.2592   -8.7771    1.0643 H       1  LIG1        0.0660
     56 H           0.9594   -7.9877   -0.3530 H       1  LIG1        0.0660
     57 H          -0.5787   -7.3825    0.3775 H       1  LIG1        0.0660
@<TRIPOS>BOND
     1     1     4    1
     2     1     2    1
     3     1     3    1
     4     2     5    2
     5     2     6    1
     6     3     8   ar
     7     3     7   ar
     8     4     9    1
     9     5    10    1
    10     5    11    1
    11     6    13   ar
    12     6    12   ar
    13     7    14   ar
    14     8    15   ar
    15     9    16   ar
    16     9    10   ar
    17    10    17   ar
    18    11    18   ar
    19    11    19   ar
    20    14    21    1
    21    14    20   ar
    22    15    20   ar
    23    16    22   ar
    24    17    23   ar
    25    18    24   ar
    26    19    25   ar
    27    20    26    1
    28    21    27    1
    29    22    23   ar
    30    23    28    1
    31    24    29   ar
    32    25    29   ar
    33    26    27    1
    34    28    30    1
    35    29    31    1
    36    30    33    1
    37    30    32    1
    38    31    34    1
    39     1    35    1
    40     7    36    1
    41     8    37    1
    42    15    38    1
    43    16    39    1
    44    17    40    1
    45    18    41    1
    46    19    42    1
    47    22    43    1
    48    24    44    1
    49    25    45    1
    50    27    46    1
    51    27    47    1
    52    30    48    1
    53    32    49    1
    54    32    50    1
    55    32    51    1
    56    33    52    1
    57    33    53    1
    58    33    54    1
    59    34    55    1
    60    34    56    1
    61    34    57    1
@<TRIPOS>MOLECULE
01479498K
 57 61 0 0 0
SMALL
GASTEIGER

@<TRIPOS>ATOM
      1 C           3.2165    0.4775   -0.6127 C.3     1  LIG1        0.1526
      2 C           3.0787   -0.9827   -0.3002 C.2     1  LIG1        0.0278
      3 C           2.9279    0.8980   -2.0622 C.ar    1  LIG1        0.0009
      4 O           2.3902    1.3146    0.2434 O.3     1  LIG1       -0.4789
      5 C           1.9675   -1.5234    0.2332 C.2     1  LIG1        0.0016
      6 C           4.3314   -1.7898   -0.6133 C.2     1  LIG1        0.0721
      7 C           3.1228    2.2459   -2.4273 C.ar    1  LIG1       -0.0091
      8 C           2.4435   -0.0053   -3.0406 C.ar    1  LIG1       -0.0511
      9 C           1.1434    0.8098    0.4974 C.ar    1  LIG1        0.1298
     10 C           0.8730   -0.5600    0.4959 C.ar    1  LIG1        0.0283
     11 C           1.8695   -2.9756    0.4815 C.ar    1  LIG1       -0.0165
     12 O           5.2748   -1.6375    0.2115 O.co2   1  LIG1       -0.5448
     13 O           4.2874   -2.4571   -1.6854 O.co2   1  LIG1       -0.5448
     14 C           2.8216    2.6318   -3.7169 C.ar    1  LIG1        0.1666
     15 C           2.1472    0.4140   -4.3422 C.ar    1  LIG1       -0.0158
     16 C           0.1434    1.7291    0.8032 C.ar    1  LIG1       -0.0158
     17 C          -0.4342   -0.9928    0.7817 C.ar    1  LIG1       -0.0087
     18 C           2.2077   -3.5102    1.7262 C.ar    1  LIG1       -0.0505
     19 C           1.3537   -3.8185   -0.5094 C.ar    1  LIG1       -0.0505
     20 C           2.3441    1.7403   -4.6480 C.ar    1  LIG1        0.1662
     21 O           2.9432    3.8908   -4.2195 O.3     1  LIG1       -0.4526
     22 C          -1.1500    1.2807    1.0734 C.ar    1  LIG1       -0.0164
     23 C          -1.4538   -0.0838    1.0563 C.ar    1  LIG1        0.1217
     24 C           1.9892   -4.8656    1.9871 C.ar    1  LIG1       -0.0194
     25 C           1.1299   -5.1727   -0.2443 C.ar    1  LIG1       -0.0194
     26 O           2.1043    2.3234   -5.8536 O.3     1  LIG1       -0.4526
     27 C           2.5009    3.6803   -5.5751 C.3     1  LIG1        0.2332
     28 O          -2.7567   -0.3694    1.3312 O.3     1  LIG1       -0.4893
     29 C           1.4249   -5.6966    1.0148 C.ar    1  LIG1        0.1201
     30 C          -3.3093   -1.6883    1.2675 C.3     1  LIG1        0.0946
     31 O           1.2175   -6.9916    1.4092 O.3     1  LIG1       -0.4951
     32 C          -3.2754   -2.3179   -0.1229 C.3     1  LIG1       -0.0281
     33 C          -2.8381   -2.6047    2.3932 C.3     1  LIG1       -0.0281
     34 C           0.4056   -7.7840    0.5523 C.3     1  LIG1        0.0788
     35 H           4.2467    0.7863   -0.3924 H       1  LIG1        0.0837
     36 H           3.4898    2.9688   -1.7062 H       1  LIG1        0.0659
     37 H           2.3037   -1.0573   -2.7944 H       1  LIG1        0.0623
     38 H           1.7818   -0.2896   -5.0806 H       1  LIG1        0.0655
     39 H           0.3710    2.7903    0.8156 H       1  LIG1        0.0655
     40 H          -0.6228   -2.0564    0.7821 H       1  LIG1        0.0661
     41 H           2.6419   -2.8713    2.4913 H       1  LIG1        0.0625
     42 H           1.1309   -3.4150   -1.4948 H       1  LIG1        0.0625
     43 H          -1.9301    2.0029    1.2966 H       1  LIG1        0.0655
     44 H           2.2559   -5.2720    2.9584 H       1  LIG1        0.0654
     45 H           0.7370   -5.7856   -1.0471 H       1  LIG1        0.0654
     46 H           3.3157    3.9529   -6.2560 H       1  LIG1        0.1166
     47 H           1.6477    4.3402   -5.7704 H       1  LIG1        0.1166
     48 H          -4.3749   -1.5175    1.4714 H       1  LIG1        0.0727
     49 H          -2.2794   -2.6575   -0.4147 H       1  LIG1        0.0265
     50 H          -3.6026   -1.5958   -0.8786 H       1  LIG1        0.0265
     51 H          -3.9375   -3.1893   -0.1654 H       1  LIG1        0.0265
     52 H          -1.8049   -2.9363    2.2719 H       1  LIG1        0.0265
     53 H          -3.4633   -3.5024    2.4456 H       1  LIG1        0.0265
     54 H          -2.8942   -2.0854    3.3560 H       1  LIG1        0.0265
     55 H           0.2249   -8.7400    1.0531 H       1  LIG1        0.0660
     56 H           0.9173   -7.9945   -0.3922 H       1  LIG1        0.0660
     57 H          -0.5686   -7.3133    0.3784 H       1  LIG1        0.0660
@<TRIPOS>BOND
     1     1     4    1
     2     1     2    1
     3     1     3    1
     4     2     5    2
     5     2     6    1
     6     3     8   ar
     7     3     7   ar
     8     4     9    1
     9     5    10    1
    10     5    11    1
    11     6    13   ar
    12     6    12   ar
    13     7    14   ar
    14     8    15   ar
    15     9    16   ar
    16     9    10   ar
    17    10    17   ar
    18    11    18   ar
    19    11    19   ar
    20    14    21    1
    21    14    20   ar
    22    15    20   ar
    23    16    22   ar
    24    17    23   ar
    25    18    24   ar
    26    19    25   ar
    27    20    26    1
    28    21    27    1
    29    22    23   ar
    30    23    28    1
    31    24    29   ar
    32    25    29   ar
    33    26    27    1
    34    28    30    1
    35    29    31    1
    36    30    33    1
    37    30    32    1
    38    31    34    1
    39     1    35    1
    40     7    36    1
    41     8    37    1
    42    15    38    1
    43    16    39    1
    44    17    40    1
    45    18    41    1
    46    19    42    1
    47    22    43    1
    48    24    44    1
    49    25    45    1
    50    27    46    1
    51    27    47    1
    52    30    48    1
    53    32    49    1
    54    32    50    1
    55    32    51    1
    56    33    52    1
    57    33    53    1
    58    33    54    1
    59    34    55    1
    60    34    56    1
    61    34    57    1
@<TRIPOS>MOLECULE
01479498K
 57 61 0 0 0
SMALL
GASTEIGER

@<TRIPOS>ATOM
      1 C           3.1850    0.4632   -0.5420 C.3     1  LIG1        0.1526
      2 C           2.9948   -1.0010   -0.2819 C.2     1  LIG1        0.0278
      3 C           2.9410    0.9184   -1.9844 C.ar    1  LIG1        0.0009
      4 O           2.3837    1.3146    0.3196 O.3     1  LIG1       -0.4789
      5 C           1.8896   -1.5152    0.2897 C.2     1  LIG1        0.0016
      6 C           4.1954   -1.8397   -0.7048 C.2     1  LIG1        0.0721
      7 C           1.9234    0.3564   -2.7795 C.ar    1  LIG1       -0.0091
      8 C           3.7083    1.9876   -2.5111 C.ar    1  LIG1       -0.0511
      9 C           1.1243    0.8396    0.5697 C.ar    1  LIG1        0.1298
     10 C           0.8209   -0.5255    0.5604 C.ar    1  LIG1        0.0283
     11 C           1.7665   -2.9649    0.5400 C.ar    1  LIG1       -0.0165
     12 O           5.2204   -1.6885    0.0175 O.co2   1  LIG1       -0.5448
     13 O           4.0354   -2.5175   -1.7567 O.co2   1  LIG1       -0.5448
     14 C           1.7167    0.8662   -4.0432 C.ar    1  LIG1        0.1666
     15 C           3.4801    2.4808   -3.8012 C.ar    1  LIG1       -0.0158
     16 C           0.1397    1.7899    0.8332 C.ar    1  LIG1       -0.0158
     17 C          -0.5107   -0.9198    0.7645 C.ar    1  LIG1       -0.0087
     18 C           2.0952   -3.4956    1.7893 C.ar    1  LIG1       -0.0505
     19 C           1.2641   -3.8128   -0.4528 C.ar    1  LIG1       -0.0505
     20 C           2.4748    1.8987   -4.5406 C.ar    1  LIG1        0.1662
     21 O           0.7694    0.4451   -4.9255 O.3     1  LIG1       -0.4526
     22 C          -1.1826    1.3842    1.0040 C.ar    1  LIG1       -0.0164
     23 C          -1.5192    0.0316    0.9278 C.ar    1  LIG1        0.1217
     24 C           1.8883   -4.8529    2.0497 C.ar    1  LIG1       -0.0194
     25 C           1.0513   -5.1694   -0.1887 C.ar    1  LIG1       -0.0194
     26 O           2.1052    2.2542   -5.8016 O.3     1  LIG1       -0.4526
     27 C           1.0498    1.3021   -6.0468 C.3     1  LIG1        0.2332
     28 O          -2.8588   -0.2365    1.0060 O.3     1  LIG1       -0.4893
     29 C           1.3449   -5.6906    1.0725 C.ar    1  LIG1        0.1201
     30 C          -3.3356   -1.4632    0.4342 C.3     1  LIG1        0.0946
     31 O           1.1574   -6.9900    1.4649 O.3     1  LIG1       -0.4951
     32 C          -4.8224   -1.5416    0.7767 C.3     1  LIG1       -0.0281
     33 C          -3.1710   -1.4884   -1.0873 C.3     1  LIG1       -0.0281
     34 C           0.4130   -7.8133    0.5766 C.3     1  LIG1        0.0788
     35 H           4.2203    0.7195   -0.2821 H       1  LIG1        0.0837
     36 H           1.3123   -0.4638   -2.4207 H       1  LIG1        0.0659
     37 H           4.4915    2.4348   -1.9022 H       1  LIG1        0.0623
     38 H           4.0731    3.2931   -4.2025 H       1  LIG1        0.0655
     39 H           0.3988    2.8437    0.8557 H       1  LIG1        0.0655
     40 H          -0.7470   -1.9776    0.7530 H       1  LIG1        0.0661
     41 H           2.5193   -2.8539    2.5571 H       1  LIG1        0.0625
     42 H           1.0570   -3.4145   -1.4440 H       1  LIG1        0.0625
     43 H          -1.9591    2.1274    1.1586 H       1  LIG1        0.0655
     44 H           2.1528   -5.2564    3.0227 H       1  LIG1        0.0654
     45 H           0.6741   -5.7862   -0.9954 H       1  LIG1        0.0654
     46 H           0.1372    1.8523   -6.3016 H       1  LIG1        0.1166
     47 H           1.3316    0.6788   -6.9034 H       1  LIG1        0.1166
     48 H          -2.8468   -2.3250    0.9004 H       1  LIG1        0.0727
     49 H          -5.3679   -0.6881    0.3554 H       1  LIG1        0.0265
     50 H          -4.9691   -1.5031    1.8624 H       1  LIG1        0.0265
     51 H          -5.2721   -2.4652    0.3967 H       1  LIG1        0.0265
     52 H          -3.5910   -0.5832   -1.5425 H       1  LIG1        0.0265
     53 H          -3.6644   -2.3635   -1.5240 H       1  LIG1        0.0265
     54 H          -2.1180   -1.5253   -1.3810 H       1  LIG1        0.0265
     55 H           0.2632   -8.7804    1.0652 H       1  LIG1        0.0660
     56 H           0.9635   -7.9914   -0.3517 H       1  LIG1        0.0660
     57 H          -0.5757   -7.3878    0.3760 H       1  LIG1        0.0660
@<TRIPOS>BOND
     1     1     4    1
     2     1     2    1
     3     1     3    1
     4     2     5    2
     5     2     6    1
     6     3     8   ar
     7     3     7   ar
     8     4     9    1
     9     5    10    1
    10     5    11    1
    11     6    13   ar
    12     6    12   ar
    13     7    14   ar
    14     8    15   ar
    15     9    16   ar
    16     9    10   ar
    17    10    17   ar
    18    11    18   ar
    19    11    19   ar
    20    14    21    1
    21    14    20   ar
    22    15    20   ar
    23    16    22   ar
    24    17    23   ar
    25    18    24   ar
    26    19    25   ar
    27    20    26    1
    28    21    27    1
    29    22    23   ar
    30    23    28    1
    31    24    29   ar
    32    25    29   ar
    33    26    27    1
    34    28    30    1
    35    29    31    1
    36    30    33    1
    37    30    32    1
    38    31    34    1
    39     1    35    1
    40     7    36    1
    41     8    37    1
    42    15    38    1
    43    16    39    1
    44    17    40    1
    45    18    41    1
    46    19    42    1
    47    22    43    1
    48    24    44    1
    49    25    45    1
    50    27    46    1
    51    27    47    1
    52    30    48    1
    53    32    49    1
    54    32    50    1
    55    32    51    1
    56    33    52    1
    57    33    53    1
    58    33    54    1
    59    34    55    1
    60    34    56    1
    61    34    57    1
@<TRIPOS>MOLECULE
01479498K
 57 61 0 0 0
SMALL
GASTEIGER

@<TRIPOS>ATOM
      1 C           3.1848    0.4743   -0.5296 C.3     1  LIG1        0.1526
      2 C           3.0020   -0.9919   -0.2773 C.2     1  LIG1        0.0278
      3 C           2.9408    0.9325   -1.9712 C.ar    1  LIG1        0.0009
      4 O           2.3784    1.3170    0.3352 O.3     1  LIG1       -0.4789
      5 C           1.8965   -1.5158    0.2871 C.2     1  LIG1        0.0016
      6 C           4.2142   -1.8162   -0.6976 C.2     1  LIG1        0.0721
      7 C           1.9251    0.3694   -2.7682 C.ar    1  LIG1       -0.0091
      8 C           3.7106    1.9993   -2.4984 C.ar    1  LIG1       -0.0511
      9 C           1.1214    0.8336    0.5821 C.ar    1  LIG1        0.1298
     10 C           0.8233   -0.5333    0.5629 C.ar    1  LIG1        0.0283
     11 C           1.7880   -2.9696    0.5202 C.ar    1  LIG1       -0.0165
     12 O           4.0782   -2.4658   -1.7718 O.co2   1  LIG1       -0.5448
     13 O           5.2253   -1.6808    0.0480 O.co2   1  LIG1       -0.5448
     14 C           1.7220    0.8770   -4.0336 C.ar    1  LIG1        0.1666
     15 C           3.4859    2.4902   -3.7898 C.ar    1  LIG1       -0.0158
     16 C           0.1339    1.7788    0.8501 C.ar    1  LIG1       -0.0158
     17 C          -0.5075   -0.9342    0.7582 C.ar    1  LIG1       -0.0087
     18 C           2.0153   -3.5007    1.7927 C.ar    1  LIG1       -0.0505
     19 C           1.4281   -3.8278   -0.5241 C.ar    1  LIG1       -0.0505
     20 C           2.4827    1.9069   -4.5312 C.ar    1  LIG1        0.1662
     21 O           0.7777    0.4525   -4.9171 O.3     1  LIG1       -0.4526
     22 C          -1.1873    1.3672    1.0159 C.ar    1  LIG1       -0.0164
     23 C          -1.5185    0.0137    0.9284 C.ar    1  LIG1        0.1217
     24 C           1.8811   -4.8745    2.0129 C.ar    1  LIG1       -0.0194
     25 C           1.2957   -5.2019   -0.3027 C.ar    1  LIG1       -0.0194
     26 O           2.1173    2.2592   -5.7938 O.3     1  LIG1       -0.4526
     27 C           1.0624    1.3063   -6.0401 C.3     1  LIG1        0.2332
     28 O          -2.8578   -0.2551    1.0043 O.3     1  LIG1       -0.4893
     29 C           1.5285   -5.7317    0.9672 C.ar    1  LIG1        0.1201
     30 C          -3.3349   -1.4804    0.4273 C.3     1  LIG1        0.0946
     31 O           1.4366   -7.0555    1.3076 O.3     1  LIG1       -0.4951
     32 C          -4.8230   -1.5583    0.7720 C.3     1  LIG1       -0.0281
     33 C          -3.1720   -1.4996   -1.0945 C.3     1  LIG1       -0.0281
     34 C           1.4034   -7.9747    0.2224 C.3     1  LIG1        0.0788
     35 H           4.2184    0.7349   -0.2672 H       1  LIG1        0.0837
     36 H           1.3125   -0.4503   -2.4095 H       1  LIG1        0.0659
     37 H           4.4936    2.4463   -1.8884 H       1  LIG1        0.0623
     38 H           4.0812    3.3005   -4.1915 H       1  LIG1        0.0655
     39 H           0.3890    2.8334    0.8797 H       1  LIG1        0.0655
     40 H          -0.7395   -1.9927    0.7336 H       1  LIG1        0.0661
     41 H           2.3187   -2.8481    2.6071 H       1  LIG1        0.0625
     42 H           1.2873   -3.4258   -1.5256 H       1  LIG1        0.0625
     43 H          -1.9643    2.1065    1.1764 H       1  LIG1        0.0655
     44 H           2.0783   -5.2794    3.0010 H       1  LIG1        0.0654
     45 H           1.0271   -5.8238   -1.1485 H       1  LIG1        0.0654
     46 H           0.1505    1.8566   -6.2998 H       1  LIG1        0.1166
     47 H           1.3467    0.6807   -6.8940 H       1  LIG1        0.1166
     48 H          -2.8449   -2.3438    0.8921 H       1  LIG1        0.0727
     49 H          -5.3659   -0.7045    0.3519 H       1  LIG1        0.0265
     50 H          -4.9676   -1.5210    1.8560 H       1  LIG1        0.0265
     51 H          -5.2715   -2.4801    0.3905 H       1  LIG1        0.0265
     52 H          -3.5908   -0.5943   -1.5443 H       1  LIG1        0.0265
     53 H          -3.6643   -2.3729   -1.5321 H       1  LIG1        0.0265
     54 H          -2.1177   -1.5356   -1.3875 H       1  LIG1        0.0265
     55 H           1.4809   -8.9839    0.6372 H       1  LIG1        0.0660
     56 H           2.2512   -7.8286   -0.4555 H       1  LIG1        0.0660
     57 H           0.4513   -7.9095   -0.3150 H       1  LIG1        0.0660
@<TRIPOS>BOND
     1     1     4    1
     2     1     2    1
     3     1     3    1
     4     2     5    2
     5     2     6    1
     6     3     8   ar
     7     3     7   ar
     8     4     9    1
     9     5    10    1
    10     5    11    1
    11     6    13   ar
    12     6    12   ar
    13     7    14   ar
    14     8    15   ar
    15     9    16   ar
    16     9    10   ar
    17    10    17   ar
    18    11    18   ar
    19    11    19   ar
    20    14    21    1
    21    14    20   ar
    22    15    20   ar
    23    16    22   ar
    24    17    23   ar
    25    18    24   ar
    26    19    25   ar
    27    20    26    1
    28    21    27    1
    29    22    23   ar
    30    23    28    1
    31    24    29   ar
    32    25    29   ar
    33    26    27    1
    34    28    30    1
    35    29    31    1
    36    30    33    1
    37    30    32    1
    38    31    34    1
    39     1    35    1
    40     7    36    1
    41     8    37    1
    42    15    38    1
    43    16    39    1
    44    17    40    1
    45    18    41    1
    46    19    42    1
    47    22    43    1
    48    24    44    1
    49    25    45    1
    50    27    46    1
    51    27    47    1
    52    30    48    1
    53    32    49    1
    54    32    50    1
    55    32    51    1
    56    33    52    1
    57    33    53    1
    58    33    54    1
    59    34    55    1
    60    34    56    1
    61    34    57    1
@<TRIPOS>MOLECULE
01479498K
 57 61 0 0 0
SMALL
GASTEIGER

@<TRIPOS>ATOM
      1 C           3.1986    0.5048   -0.6126 C.3     1  LIG1        0.1526
      2 C           3.0630   -0.9634   -0.3386 C.2     1  LIG1        0.0278
      3 C           2.9165    0.9643   -2.0491 C.ar    1  LIG1        0.0009
      4 O           2.3776    1.3246    0.2638 O.3     1  LIG1       -0.4789
      5 C           1.9659   -1.5159    0.2134 C.2     1  LIG1        0.0016
      6 C           4.3098   -1.7580   -0.7126 C.2     1  LIG1        0.0721
      7 C           2.3730    0.1132   -3.0288 C.ar    1  LIG1       -0.0091
      8 C           3.1820    2.3166   -2.3921 C.ar    1  LIG1       -0.0511
      9 C           1.1378    0.8093    0.5284 C.ar    1  LIG1        0.1298
     10 C           0.8731   -0.5616    0.5103 C.ar    1  LIG1        0.0283
     11 C           1.8890   -2.9706    0.4570 C.ar    1  LIG1       -0.0165
     12 O           5.2996   -1.5717    0.0498 O.co2   1  LIG1       -0.5448
     13 O           4.2162   -2.4424   -1.7695 O.co2   1  LIG1       -0.5448
     14 C           2.1151    0.6305   -4.2814 C.ar    1  LIG1        0.1666
     15 C           2.9128    2.8139   -3.6714 C.ar    1  LIG1       -0.0158
     16 C           0.1385    1.7202    0.8590 C.ar    1  LIG1       -0.0158
     17 C          -0.4305   -1.0040    0.7987 C.ar    1  LIG1       -0.0087
     18 C           2.1210   -3.4879    1.7339 C.ar    1  LIG1       -0.0505
     19 C           1.5224   -3.8391   -0.5765 C.ar    1  LIG1       -0.0505
     20 C           2.3776    1.9434   -4.5936 C.ar    1  LIG1        0.1662
     21 O           1.5820   -0.0546   -5.3299 O.3     1  LIG1       -0.4526
     22 C          -1.1503    1.2627    1.1341 C.ar    1  LIG1       -0.0164
     23 C          -1.4497   -0.1027    1.0960 C.ar    1  LIG1        0.1217
     24 C           1.9769   -4.8576    1.9717 C.ar    1  LIG1       -0.0194
     25 C           1.3801   -5.2093   -0.3376 C.ar    1  LIG1       -0.0194
     26 O           2.0478    2.2493   -5.8781 O.3     1  LIG1       -0.4526
     27 C           1.5752    0.9676   -6.3419 C.3     1  LIG1        0.2332
     28 O          -2.7512   -0.3936    1.3741 O.3     1  LIG1       -0.4893
     29 C           1.6097   -5.7246    0.9389 C.ar    1  LIG1        0.1201
     30 C          -3.3040   -1.7107    1.2867 C.3     1  LIG1        0.0946
     31 O           1.4989   -7.0414    1.2999 O.3     1  LIG1       -0.4951
     32 C          -3.2739   -2.3146   -0.1154 C.3     1  LIG1       -0.0281
     33 C          -2.8290   -2.6463    2.3946 C.3     1  LIG1       -0.0281
     34 C           1.4187   -7.9756    0.2306 C.3     1  LIG1        0.0788
     35 H           4.2293    0.8055   -0.3819 H       1  LIG1        0.0837
     36 H           2.1660   -0.9330   -2.8251 H       1  LIG1        0.0659
     37 H           3.5970    2.9834   -1.6383 H       1  LIG1        0.0623
     38 H           3.1152    3.8465   -3.9258 H       1  LIG1        0.0655
     39 H           0.3620    2.7819    0.8843 H       1  LIG1        0.0655
     40 H          -0.6148   -2.0685    0.7774 H       1  LIG1        0.0661
     41 H           2.4266   -2.8262    2.5399 H       1  LIG1        0.0625
     42 H           1.3710   -3.4464   -1.5802 H       1  LIG1        0.0625
     43 H          -1.9314    1.9786    1.3747 H       1  LIG1        0.0655
     44 H           2.1711   -5.2509    2.9650 H       1  LIG1        0.0654
     45 H           1.0997   -5.8387   -1.1738 H       1  LIG1        0.0654
     46 H           0.5496    1.0874   -6.7099 H       1  LIG1        0.1166
     47 H           2.2083    0.6417   -7.1754 H       1  LIG1        0.1166
     48 H          -4.3691   -1.5435    1.4962 H       1  LIG1        0.0727
     49 H          -2.2792   -2.6510   -0.4148 H       1  LIG1        0.0265
     50 H          -3.6008   -1.5780   -0.8570 H       1  LIG1        0.0265
     51 H          -3.9380   -3.1835   -0.1726 H       1  LIG1        0.0265
     52 H          -1.7947   -2.9709    2.2661 H       1  LIG1        0.0265
     53 H          -3.4513   -3.5465    2.4310 H       1  LIG1        0.0265
     54 H          -2.8862   -2.1446    3.3664 H       1  LIG1        0.0265
     55 H           1.4696   -8.9804    0.6610 H       1  LIG1        0.0660
     56 H           2.2614   -7.8676   -0.4610 H       1  LIG1        0.0660
     57 H           0.4618   -7.8882   -0.2944 H       1  LIG1        0.0660
@<TRIPOS>BOND
     1     1     4    1
     2     1     2    1
     3     1     3    1
     4     2     5    2
     5     2     6    1
     6     3     8   ar
     7     3     7   ar
     8     4     9    1
     9     5    10    1
    10     5    11    1
    11     6    13   ar
    12     6    12   ar
    13     7    14   ar
    14     8    15   ar
    15     9    16   ar
    16     9    10   ar
    17    10    17   ar
    18    11    18   ar
    19    11    19   ar
    20    14    21    1
    21    14    20   ar
    22    15    20   ar
    23    16    22   ar
    24    17    23   ar
    25    18    24   ar
    26    19    25   ar
    27    20    26    1
    28    21    27    1
    29    22    23   ar
    30    23    28    1
    31    24    29   ar
    32    25    29   ar
    33    26    27    1
    34    28    30    1
    35    29    31    1
    36    30    33    1
    37    30    32    1
    38    31    34    1
    39     1    35    1
    40     7    36    1
    41     8    37    1
    42    15    38    1
    43    16    39    1
    44    17    40    1
    45    18    41    1
    46    19    42    1
    47    22    43    1
    48    24    44    1
    49    25    45    1
    50    27    46    1
    51    27    47    1
    52    30    48    1
    53    32    49    1
    54    32    50    1
    55    32    51    1
    56    33    52    1
    57    33    53    1
    58    33    54    1
    59    34    55    1
    60    34    56    1
    61    34    57    1
@<TRIPOS>MOLECULE
01479498K
 57 61 0 0 0
SMALL
GASTEIGER

@<TRIPOS>ATOM
      1 C           3.0929    0.5704   -0.5621 C.3     1  LIG1        0.1526
      2 C           2.9464   -0.9116   -0.3620 C.2     1  LIG1        0.0278
      3 C           2.8849    1.0202   -2.0156 C.ar    1  LIG1        0.0009
      4 O           2.2759    1.3747    0.3327 O.3     1  LIG1       -0.4789
      5 C           1.8800   -1.4813    0.2276 C.2     1  LIG1        0.0016
      6 C           4.1657   -1.7028   -0.8255 C.2     1  LIG1        0.0721
      7 C           1.6494    1.5038   -2.4852 C.ar    1  LIG1       -0.0091
      8 C           3.9618    0.9142   -2.9327 C.ar    1  LIG1       -0.0511
      9 C           1.0729    0.8285    0.6877 C.ar    1  LIG1        0.1298
     10 C           0.8070   -0.5381    0.6169 C.ar    1  LIG1        0.0283
     11 C           1.8120   -2.9395    0.4597 C.ar    1  LIG1       -0.0165
     12 O           5.2248   -1.4603   -0.1782 O.co2   1  LIG1       -0.5448
     13 O           3.9954   -2.4229   -1.8483 O.co2   1  LIG1       -0.5448
     14 C           1.5414    1.8701   -3.8102 C.ar    1  LIG1        0.1666
     15 C           3.8239    1.2895   -4.2739 C.ar    1  LIG1       -0.0158
     16 C           0.0866    1.7217    1.1045 C.ar    1  LIG1       -0.0158
     17 C          -0.4880   -0.9919    0.9168 C.ar    1  LIG1       -0.0087
     18 C           2.1480   -3.4661    1.7099 C.ar    1  LIG1       -0.0505
     19 C           1.3226   -3.7934   -0.5334 C.ar    1  LIG1       -0.0505
     20 C           2.5995    1.7670   -4.6810 C.ar    1  LIG1        0.1662
     21 O           0.4194    2.3573   -4.4087 O.3     1  LIG1       -0.4526
     22 C          -1.2000    1.2574    1.3759 C.ar    1  LIG1       -0.0164
     23 C          -1.5045   -0.0979    1.2428 C.ar    1  LIG1        0.1217
     24 C           1.9569   -4.8253    1.9721 C.ar    1  LIG1       -0.0194
     25 C           1.1259   -5.1526   -0.2670 C.ar    1  LIG1       -0.0194
     26 O           2.2778    2.1757   -5.9388 O.3     1  LIG1       -0.4526
     27 C           0.8890    2.5184   -5.7601 C.3     1  LIG1        0.2332
     28 O          -2.8060   -0.4245    1.4834 O.3     1  LIG1       -0.4893
     29 C           1.4203   -5.6684    0.9965 C.ar    1  LIG1        0.1201
     30 C          -3.4370   -1.5259    0.8121 C.3     1  LIG1        0.0946
     31 O           1.2392   -6.9674    1.3912 O.3     1  LIG1       -0.4951
     32 C          -3.1271   -1.6737   -0.6786 C.3     1  LIG1       -0.0281
     33 C          -3.3046   -2.8243    1.6003 C.3     1  LIG1       -0.0281
     34 C           0.4340   -7.7722    0.5406 C.3     1  LIG1        0.0788
     35 H           4.1122    0.8666   -0.2836 H       1  LIG1        0.0837
     36 H           0.7844    1.5873   -1.8399 H       1  LIG1        0.0659
     37 H           4.9152    0.5022   -2.5952 H       1  LIG1        0.0623
     38 H           4.6493    1.1866   -4.9672 H       1  LIG1        0.0655
     39 H           0.3135    2.7815    1.1738 H       1  LIG1        0.0655
     40 H          -0.6848   -2.0542    0.8700 H       1  LIG1        0.0661
     41 H           2.5548   -2.8172    2.4801 H       1  LIG1        0.0625
     42 H           1.1059   -3.3956   -1.5231 H       1  LIG1        0.0625
     43 H          -1.9763    1.9607    1.6631 H       1  LIG1        0.0655
     44 H           2.2202   -5.2234    2.9472 H       1  LIG1        0.0654
     45 H           0.7557   -5.7757   -1.0729 H       1  LIG1        0.0654
     46 H           0.7467    3.5639   -6.0561 H       1  LIG1        0.1166
     47 H           0.2833    1.8845   -6.4190 H       1  LIG1        0.1166
     48 H          -4.5032   -1.2649    0.8541 H       1  LIG1        0.0727
     49 H          -2.1469   -2.1214   -0.8622 H       1  LIG1        0.0265
     50 H          -3.1461   -0.7005   -1.1814 H       1  LIG1        0.0265
     51 H          -3.8659   -2.3256   -1.1586 H       1  LIG1        0.0265
     52 H          -2.2802   -3.2006    1.6233 H       1  LIG1        0.0265
     53 H          -3.9388   -3.6066    1.1704 H       1  LIG1        0.0265
     54 H          -3.6051   -2.6670    2.6414 H       1  LIG1        0.0265
     55 H           0.2685   -8.7296    1.0457 H       1  LIG1        0.0660
     56 H           0.9443   -7.9791   -0.4047 H       1  LIG1        0.0660
     57 H          -0.5467   -7.3156    0.3702 H       1  LIG1        0.0660
@<TRIPOS>BOND
     1     1     4    1
     2     1     2    1
     3     1     3    1
     4     2     5    2
     5     2     6    1
     6     3     8   ar
     7     3     7   ar
     8     4     9    1
     9     5    10    1
    10     5    11    1
    11     6    13   ar
    12     6    12   ar
    13     7    14   ar
    14     8    15   ar
    15     9    16   ar
    16     9    10   ar
    17    10    17   ar
    18    11    18   ar
    19    11    19   ar
    20    14    21    1
    21    14    20   ar
    22    15    20   ar
    23    16    22   ar
    24    17    23   ar
    25    18    24   ar
    26    19    25   ar
    27    20    26    1
    28    21    27    1
    29    22    23   ar
    30    23    28    1
    31    24    29   ar
    32    25    29   ar
    33    26    27    1
    34    28    30    1
    35    29    31    1
    36    30    33    1
    37    30    32    1
    38    31    34    1
    39     1    35    1
    40     7    36    1
    41     8    37    1
    42    15    38    1
    43    16    39    1
    44    17    40    1
    45    18    41    1
    46    19    42    1
    47    22    43    1
    48    24    44    1
    49    25    45    1
    50    27    46    1
    51    27    47    1
    52    30    48    1
    53    32    49    1
    54    32    50    1
    55    32    51    1
    56    33    52    1
    57    33    53    1
    58    33    54    1
    59    34    55    1
    60    34    56    1
    61    34    57    1
@<TRIPOS>MOLECULE
01479498K
 57 61 0 0 0
SMALL
GASTEIGER

@<TRIPOS>ATOM
      1 C           3.1970    0.4631   -0.6547 C.3     1  LIG1        0.1526
      2 C           3.0562   -0.9992   -0.3474 C.2     1  LIG1        0.0278
      3 C           2.9091    0.8931   -2.1004 C.ar    1  LIG1        0.0009
      4 O           2.3819    1.3037    0.2083 O.3     1  LIG1       -0.4789
      5 C           1.9572   -1.5349    0.2165 C.2     1  LIG1        0.0016
      6 C           4.2936   -1.8137   -0.7088 C.2     1  LIG1        0.0721
      7 C           3.1195    2.2409   -2.4583 C.ar    1  LIG1       -0.0091
      8 C           2.4174    0.0001   -3.0842 C.ar    1  LIG1       -0.0511
      9 C           1.1402    0.7999    0.4874 C.ar    1  LIG1        0.1298
     10 C           0.8700   -0.5689    0.4996 C.ar    1  LIG1        0.0283
     11 C           1.8629   -2.9843    0.4833 C.ar    1  LIG1       -0.0165
     12 O           5.2897   -1.6164    0.0411 O.co2   1  LIG1       -0.5448
     13 O           4.1826   -2.5280   -1.7444 O.co2   1  LIG1       -0.5448
     14 C           2.8294    2.6361   -3.7475 C.ar    1  LIG1        0.1666
     15 C           2.1338    0.4283   -4.3861 C.ar    1  LIG1       -0.0158
     16 C           0.1464    1.7216    0.8059 C.ar    1  LIG1       -0.0158
     17 C          -0.4328   -0.9998    0.8110 C.ar    1  LIG1       -0.0087
     18 C           2.1974   -3.4984    1.7379 C.ar    1  LIG1       -0.0505
     19 C           1.3529   -3.8443   -0.4956 C.ar    1  LIG1       -0.0505
     20 C           2.3480    1.7540   -4.6849 C.ar    1  LIG1        0.1662
     21 O           2.9685    3.8957   -4.2439 O.3     1  LIG1       -0.4526
     22 C          -1.1429    1.2752    1.1003 C.ar    1  LIG1       -0.0164
     23 C          -1.4472   -0.0898    1.0944 C.ar    1  LIG1        0.1217
     24 C           1.9839   -4.8499    2.0194 C.ar    1  LIG1       -0.0194
     25 C           1.1348   -5.1958   -0.2108 C.ar    1  LIG1       -0.0194
     26 O           2.1233    2.3445   -5.8899 O.3     1  LIG1       -0.4526
     27 C           2.5330    3.6959   -5.6029 C.3     1  LIG1        0.2332
     28 O          -2.7466   -0.3729    1.3893 O.3     1  LIG1       -0.4893
     29 C           1.4286   -5.6991    1.0569 C.ar    1  LIG1        0.1201
     30 C          -3.3092   -1.6861    1.2997 C.3     1  LIG1        0.0946
     31 O           1.2282   -6.9901    1.4704 O.3     1  LIG1       -0.4951
     32 C          -3.2735   -2.2963   -0.0996 C.3     1  LIG1       -0.0281
     33 C          -2.8498   -2.6226    2.4142 C.3     1  LIG1       -0.0281
     34 C           0.4481   -7.8100    0.6096 C.3     1  LIG1        0.0788
     35 H           4.2297    0.7650   -0.4363 H       1  LIG1        0.0837
     36 H           3.4925    2.9560   -1.7326 H       1  LIG1        0.0659
     37 H           2.2635   -1.0511   -2.8431 H       1  LIG1        0.0623
     38 H           1.7654   -0.2676   -5.1293 H       1  LIG1        0.0655
     39 H           0.3740    2.7826    0.8080 H       1  LIG1        0.0655
     40 H          -0.6207   -2.0632    0.8223 H       1  LIG1        0.0661
     41 H           2.6234   -2.8463    2.4955 H       1  LIG1        0.0625
     42 H           1.1333   -3.4570   -1.4883 H       1  LIG1        0.0625
     43 H          -1.9193    1.9992    1.3316 H       1  LIG1        0.0655
     44 H           2.2475   -5.2409    2.9975 H       1  LIG1        0.0654
     45 H           0.7472   -5.8219   -1.0059 H       1  LIG1        0.0654
     46 H           3.3551    3.9627   -6.2775 H       1  LIG1        0.1166
     47 H           1.6883    4.3659   -5.8011 H       1  LIG1        0.1166
     48 H          -4.3745   -1.5104    1.5011 H       1  LIG1        0.0727
     49 H          -2.2802   -2.6471   -0.3874 H       1  LIG1        0.0265
     50 H          -3.5837   -1.5590   -0.8473 H       1  LIG1        0.0265
     51 H          -3.9475   -3.1570   -0.1595 H       1  LIG1        0.0265
     52 H          -1.8160   -2.9531    2.2963 H       1  LIG1        0.0265
     53 H          -3.4772   -3.5197    2.4459 H       1  LIG1        0.0265
     54 H          -2.9136   -2.1193    3.3845 H       1  LIG1        0.0265
     55 H           0.2804   -8.7630    1.1190 H       1  LIG1        0.0660
     56 H           0.9802   -8.0199   -0.3231 H       1  LIG1        0.0660
     57 H          -0.5320   -7.3623    0.4147 H       1  LIG1        0.0660
@<TRIPOS>BOND
     1     1     4    1
     2     1     2    1
     3     1     3    1
     4     2     5    2
     5     2     6    1
     6     3     8   ar
     7     3     7   ar
     8     4     9    1
     9     5    10    1
    10     5    11    1
    11     6    13   ar
    12     6    12   ar
    13     7    14   ar
    14     8    15   ar
    15     9    16   ar
    16     9    10   ar
    17    10    17   ar
    18    11    18   ar
    19    11    19   ar
    20    14    21    1
    21    14    20   ar
    22    15    20   ar
    23    16    22   ar
    24    17    23   ar
    25    18    24   ar
    26    19    25   ar
    27    20    26    1
    28    21    27    1
    29    22    23   ar
    30    23    28    1
    31    24    29   ar
    32    25    29   ar
    33    26    27    1
    34    28    30    1
    35    29    31    1
    36    30    33    1
    37    30    32    1
    38    31    34    1
    39     1    35    1
    40     7    36    1
    41     8    37    1
    42    15    38    1
    43    16    39    1
    44    17    40    1
    45    18    41    1
    46    19    42    1
    47    22    43    1
    48    24    44    1
    49    25    45    1
    50    27    46    1
    51    27    47    1
    52    30    48    1
    53    32    49    1
    54    32    50    1
    55    32    51    1
    56    33    52    1
    57    33    53    1
    58    33    54    1
    59    34    55    1
    60    34    56    1
    61    34    57    1
@<TRIPOS>MOLECULE
01479498K
 57 61 0 0 0
SMALL
GASTEIGER

@<TRIPOS>ATOM
      1 C           3.0844    0.5775   -0.5599 C.3     1  LIG1        0.1526
      2 C           2.9433   -0.9052   -0.3671 C.2     1  LIG1        0.0278
      3 C           2.8786    1.0322   -2.0124 C.ar    1  LIG1        0.0009
      4 O           2.2638    1.3741    0.3371 O.3     1  LIG1       -0.4789
      5 C           1.8769   -1.4836    0.2167 C.2     1  LIG1        0.0016
      6 C           4.1746   -1.6840   -0.8252 C.2     1  LIG1        0.0721
      7 C           1.6423    1.5122   -2.4835 C.ar    1  LIG1       -0.0091
      8 C           3.9588    0.9323   -2.9270 C.ar    1  LIG1       -0.0511
      9 C           1.0631    0.8212    0.6899 C.ar    1  LIG1        0.1298
     10 C           0.8019   -0.5473    0.6107 C.ar    1  LIG1        0.0283
     11 C           1.8246   -2.9439    0.4390 C.ar    1  LIG1       -0.0165
     12 O           5.2192   -1.4581   -0.1506 O.co2   1  LIG1       -0.5448
     13 O           4.0268   -2.3740   -1.8726 O.co2   1  LIG1       -0.5448
     14 C           1.5360    1.8799   -3.8085 C.ar    1  LIG1        0.1666
     15 C           3.8214    1.3094   -4.2682 C.ar    1  LIG1       -0.0158
     16 C           0.0758    1.7104    1.1125 C.ar    1  LIG1       -0.0158
     17 C          -0.4936   -1.0049    0.9058 C.ar    1  LIG1       -0.0087
     18 C           2.0614   -3.4681    1.7133 C.ar    1  LIG1       -0.0505
     19 C           1.4797   -3.8116   -0.6015 C.ar    1  LIG1       -0.0505
     20 C           2.5958    1.7821   -4.6774 C.ar    1  LIG1        0.1662
     21 O           0.4136    2.3630   -4.4085 O.3     1  LIG1       -0.4526
     22 C          -1.2091    1.2411    1.3825 C.ar    1  LIG1       -0.0164
     23 C          -1.5111   -0.1144    1.2404 C.ar    1  LIG1        0.1217
     24 C           1.9458   -4.8423    1.9404 C.ar    1  LIG1       -0.0194
     25 C           1.3667   -5.1871   -0.3738 C.ar    1  LIG1       -0.0194
     26 O           2.2755    2.1902   -5.9354 O.3     1  LIG1       -0.4526
     27 C           0.8849    2.5260   -5.7597 C.3     1  LIG1        0.2332
     28 O          -2.8122   -0.4418    1.4816 O.3     1  LIG1       -0.4893
     29 C           1.6013   -5.7084    0.8996 C.ar    1  LIG1        0.1201
     30 C          -3.4443   -1.5422    0.8119 C.3     1  LIG1        0.0946
     31 O           1.5188   -7.0296    1.2514 O.3     1  LIG1       -0.4951
     32 C          -3.1413   -1.6875   -0.6803 C.3     1  LIG1       -0.0281
     33 C          -3.3062   -2.8410    1.5991 C.3     1  LIG1       -0.0281
     34 C           1.4240   -7.9576    0.1784 C.3     1  LIG1        0.0788
     35 H           4.1029    0.8755   -0.2784 H       1  LIG1        0.0837
     36 H           0.7756    1.5907   -1.8400 H       1  LIG1        0.0659
     37 H           4.9117    0.5229   -2.5888 H       1  LIG1        0.0623
     38 H           4.6489    1.2096   -4.9598 H       1  LIG1        0.0655
     39 H           0.3003    2.7698    1.1879 H       1  LIG1        0.0655
     40 H          -0.6878   -2.0675    0.8479 H       1  LIG1        0.0661
     41 H           2.3474   -2.8072    2.5277 H       1  LIG1        0.0625
     42 H           1.3273   -3.4137   -1.6031 H       1  LIG1        0.0625
     43 H          -1.9866    1.9408    1.6752 H       1  LIG1        0.0655
     44 H           2.1432   -5.2390    2.9319 H       1  LIG1        0.0654
     45 H           1.1062   -5.8156   -1.2172 H       1  LIG1        0.0654
     46 H           0.7380    3.5711   -6.0559 H       1  LIG1        0.1166
     47 H           0.2834    1.8894   -6.4193 H       1  LIG1        0.1166
     48 H          -4.5105   -1.2837    0.8593 H       1  LIG1        0.0727
     49 H          -2.1608   -2.1326   -0.8691 H       1  LIG1        0.0265
     50 H          -3.1642   -0.7138   -1.1803 H       1  LIG1        0.0265
     51 H          -3.8805   -2.3396   -1.1575 H       1  LIG1        0.0265
     52 H          -2.2801   -3.2139    1.6196 H       1  LIG1        0.0265
     53 H          -3.9390   -3.6250    1.1708 H       1  LIG1        0.0265
     54 H          -3.6043   -2.6849    2.6415 H       1  LIG1        0.0265
     55 H           1.4841   -8.9647    0.6022 H       1  LIG1        0.0660
     56 H           2.2557   -7.8435   -0.5251 H       1  LIG1        0.0660
     57 H           0.4588   -7.8698   -0.3311 H       1  LIG1        0.0660
@<TRIPOS>BOND
     1     1     4    1
     2     1     2    1
     3     1     3    1
     4     2     5    2
     5     2     6    1
     6     3     8   ar
     7     3     7   ar
     8     4     9    1
     9     5    10    1
    10     5    11    1
    11     6    13   ar
    12     6    12   ar
    13     7    14   ar
    14     8    15   ar
    15     9    16   ar
    16     9    10   ar
    17    10    17   ar
    18    11    18   ar
    19    11    19   ar
    20    14    21    1
    21    14    20   ar
    22    15    20   ar
    23    16    22   ar
    24    17    23   ar
    25    18    24   ar
    26    19    25   ar
    27    20    26    1
    28    21    27    1
    29    22    23   ar
    30    23    28    1
    31    24    29   ar
    32    25    29   ar
    33    26    27    1
    34    28    30    1
    35    29    31    1
    36    30    33    1
    37    30    32    1
    38    31    34    1
    39     1    35    1
    40     7    36    1
    41     8    37    1
    42    15    38    1
    43    16    39    1
    44    17    40    1
    45    18    41    1
    46    19    42    1
    47    22    43    1
    48    24    44    1
    49    25    45    1
    50    27    46    1
    51    27    47    1
    52    30    48    1
    53    32    49    1
    54    32    50    1
    55    32    51    1
    56    33    52    1
    57    33    53    1
    58    33    54    1
    59    34    55    1
    60    34    56    1
    61    34    57    1
@<TRIPOS>MOLECULE
01479498K
 57 61 0 0 0
SMALL
GASTEIGER

@<TRIPOS>ATOM
      1 C           3.1075    0.5759   -0.5435 C.3     1  LIG1        0.1526
      2 C           2.9688   -0.9069   -0.3429 C.2     1  LIG1        0.0278
      3 C           2.8759    1.0245   -1.9951 C.ar    1  LIG1        0.0009
      4 O           2.2995    1.3720    0.3669 O.3     1  LIG1       -0.4789
      5 C           1.9008   -1.4809    0.2416 C.2     1  LIG1        0.0016
      6 C           4.1939   -1.6919   -0.8080 C.2     1  LIG1        0.0721
      7 C           1.6349    1.5135   -2.4450 C.ar    1  LIG1       -0.0091
      8 C           3.9360    0.9108   -2.9308 C.ar    1  LIG1       -0.0511
      9 C           1.0916    0.8267    0.7085 C.ar    1  LIG1        0.1298
     10 C           0.8259   -0.5403    0.6261 C.ar    1  LIG1        0.0283
     11 C           1.8294   -2.9417    0.4524 C.ar    1  LIG1       -0.0165
     12 O           5.2499   -1.4456   -0.1578 O.co2   1  LIG1       -0.5448
     13 O           4.0280   -2.4075   -1.8331 O.co2   1  LIG1       -0.5448
     14 C           1.5049    1.8768   -3.7688 C.ar    1  LIG1        0.1666
     15 C           3.7750    1.2836   -4.2710 C.ar    1  LIG1       -0.0158
     16 C           0.1003    1.7214    1.1105 C.ar    1  LIG1       -0.0158
     17 C          -0.4758   -0.9915    0.8998 C.ar    1  LIG1       -0.0087
     18 C           2.1436   -3.4903    1.6986 C.ar    1  LIG1       -0.0505
     19 C           1.3661   -3.7807   -0.5659 C.ar    1  LIG1       -0.0505
     20 C           2.5461    1.7665   -4.6580 C.ar    1  LIG1        0.1662
     21 O           0.3746    2.3679   -4.3473 O.3     1  LIG1       -0.4526
     22 C          -1.1937    1.2585    1.3480 C.ar    1  LIG1       -0.0164
     23 C          -1.4983   -0.0958    1.2019 C.ar    1  LIG1        0.1217
     24 C           1.9705   -4.8587    1.9258 C.ar    1  LIG1       -0.0194
     25 C           1.1904   -5.1493   -0.3360 C.ar    1  LIG1       -0.0194
     26 O           2.2036    2.1734   -5.9105 O.3     1  LIG1       -0.4526
     27 C           0.8211    2.5270   -5.7070 C.3     1  LIG1        0.2332
     28 O          -2.8090   -0.4155    1.3975 O.3     1  LIG1       -0.4893
     29 C           1.4824   -5.6928    0.9160 C.ar    1  LIG1        0.1201
     30 C          -3.4150   -1.5372    0.7380 C.3     1  LIG1        0.0946
     31 O           1.3350   -7.0061    1.2759 O.3     1  LIG1       -0.4951
     32 C          -3.0603   -1.7269   -0.7383 C.3     1  LIG1       -0.0281
     33 C          -3.3028   -2.8106    1.5692 C.3     1  LIG1       -0.0281
     34 C           0.8472   -7.8858    0.2720 C.3     1  LIG1        0.0788
     35 H           4.1300    0.8768   -0.2805 H       1  LIG1        0.0837
     36 H           0.7809    1.6036   -1.7873 H       1  LIG1        0.0659
     37 H           4.8926    0.4952   -2.6101 H       1  LIG1        0.0623
     38 H           4.5877    1.1744   -4.9786 H       1  LIG1        0.0655
     39 H           0.3275    2.7801    1.1861 H       1  LIG1        0.0655
     40 H          -0.6725   -2.0537    0.8449 H       1  LIG1        0.0661
     41 H           2.5257   -2.8529    2.4918 H       1  LIG1        0.0625
     42 H           1.1579   -3.3639   -1.5494 H       1  LIG1        0.0625
     43 H          -1.9758    1.9634    1.6152 H       1  LIG1        0.0655
     44 H           2.2221   -5.2748    2.8969 H       1  LIG1        0.0654
     45 H           0.8354   -5.7546   -1.1615 H       1  LIG1        0.0654
     46 H           0.6818    3.5745   -5.9986 H       1  LIG1        0.1166
     47 H           0.1984    1.8994   -6.3555 H       1  LIG1        0.1166
     48 H          -4.4827   -1.2801    0.7386 H       1  LIG1        0.0727
     49 H          -2.0789   -2.1863   -0.8805 H       1  LIG1        0.0265
     50 H          -3.0569   -0.7687   -1.2671 H       1  LIG1        0.0265
     51 H          -3.7873   -2.3882   -1.2225 H       1  LIG1        0.0265
     52 H          -2.2739   -3.1652    1.6606 H       1  LIG1        0.0265
     53 H          -3.8991   -3.6172    1.1307 H       1  LIG1        0.0265
     54 H          -3.6617   -2.6281    2.5879 H       1  LIG1        0.0265
     55 H           0.7891   -8.8887    0.7061 H       1  LIG1        0.0660
     56 H           1.5311   -7.9328   -0.5818 H       1  LIG1        0.0660
     57 H          -0.1629   -7.6032   -0.0437 H       1  LIG1        0.0660
@<TRIPOS>BOND
     1     1     4    1
     2     1     2    1
     3     1     3    1
     4     2     5    2
     5     2     6    1
     6     3     8   ar
     7     3     7   ar
     8     4     9    1
     9     5    10    1
    10     5    11    1
    11     6    13   ar
    12     6    12   ar
    13     7    14   ar
    14     8    15   ar
    15     9    16   ar
    16     9    10   ar
    17    10    17   ar
    18    11    18   ar
    19    11    19   ar
    20    14    21    1
    21    14    20   ar
    22    15    20   ar
    23    16    22   ar
    24    17    23   ar
    25    18    24   ar
    26    19    25   ar
    27    20    26    1
    28    21    27    1
    29    22    23   ar
    30    23    28    1
    31    24    29   ar
    32    25    29   ar
    33    26    27    1
    34    28    30    1
    35    29    31    1
    36    30    33    1
    37    30    32    1
    38    31    34    1
    39     1    35    1
    40     7    36    1
    41     8    37    1
    42    15    38    1
    43    16    39    1
    44    17    40    1
    45    18    41    1
    46    19    42    1
    47    22    43    1
    48    24    44    1
    49    25    45    1
    50    27    46    1
    51    27    47    1
    52    30    48    1
    53    32    49    1
    54    32    50    1
    55    32    51    1
    56    33    52    1
    57    33    53    1
    58    33    54    1
    59    34    55    1
    60    34    56    1
    61    34    57    1
@<TRIPOS>MOLECULE
01479498K
 57 61 0 0 0
SMALL
GASTEIGER

@<TRIPOS>ATOM
      1 C           3.1686    0.5347   -0.5621 C.3     1  LIG1        0.1526
      2 C           3.0368   -0.9348   -0.2987 C.2     1  LIG1        0.0278
      3 C           2.9182    0.9678   -2.0088 C.ar    1  LIG1        0.0009
      4 O           2.3258    1.3618    0.2809 O.3     1  LIG1       -0.4789
      5 C           1.9553   -1.4952    0.2741 C.2     1  LIG1        0.0016
      6 C           4.2748   -1.7215   -0.7145 C.2     1  LIG1        0.0721
      7 C           1.8880    0.3995   -2.7829 C.ar    1  LIG1       -0.0091
      8 C           3.6930    2.0161   -2.5645 C.ar    1  LIG1       -0.0511
      9 C           1.1005    0.8268    0.5722 C.ar    1  LIG1        0.1298
     10 C           0.8570   -0.5507    0.5813 C.ar    1  LIG1        0.0283
     11 C           1.8965   -2.9540    0.4946 C.ar    1  LIG1       -0.0165
     12 O           4.1648   -2.3787   -1.7858 O.co2   1  LIG1       -0.5448
     13 O           5.2761   -1.5561    0.0393 O.co2   1  LIG1       -0.5448
     14 C           1.6767    0.8839   -4.0559 C.ar    1  LIG1        0.1666
     15 C           3.4588    2.4847   -3.8628 C.ar    1  LIG1       -0.0158
     16 C           0.0872    1.7329    0.8793 C.ar    1  LIG1       -0.0158
     17 C          -0.4425   -1.0009    0.8667 C.ar    1  LIG1       -0.0087
     18 C           1.3849   -3.7970   -0.4970 C.ar    1  LIG1       -0.0505
     19 C           2.3204   -3.5039    1.7077 C.ar    1  LIG1       -0.0505
     20 C           2.4412    1.8973   -4.5810 C.ar    1  LIG1        0.1662
     21 O           0.7181    0.4529   -4.9211 O.3     1  LIG1       -0.4526
     22 C          -1.2017    1.2677    1.1337 C.ar    1  LIG1       -0.0164
     23 C          -1.4805   -0.0996    1.0926 C.ar    1  LIG1        0.1217
     24 C           1.2819   -5.1706   -0.2674 C.ar    1  LIG1       -0.0194
     25 C           2.2244   -4.8822    1.9329 C.ar    1  LIG1       -0.0194
     26 O           2.0649    2.2295   -5.8464 O.3     1  LIG1       -0.4526
     27 C           1.0002    1.2805   -6.0633 C.3     1  LIG1        0.2332
     28 O          -2.7847   -0.4282    1.3189 O.3     1  LIG1       -0.4893
     29 C           1.7045   -5.7208    0.9446 C.ar    1  LIG1        0.1201
     30 C          -3.3874   -1.5618    0.6783 C.3     1  LIG1        0.0946
     31 O           1.5502   -7.0779    1.0453 O.3     1  LIG1       -0.4951
     32 C          -3.0122   -1.7906   -0.7868 C.3     1  LIG1       -0.0281
     33 C          -3.2884   -2.8150    1.5416 C.3     1  LIG1       -0.0281
     34 C           2.2401   -7.7083    2.1160 C.3     1  LIG1        0.0788
     35 H           4.1903    0.8340   -0.2930 H       1  LIG1        0.0837
     36 H           1.2719   -0.4067   -2.4010 H       1  LIG1        0.0659
     37 H           4.4879    2.4662   -1.9728 H       1  LIG1        0.0623
     38 H           4.0574    3.2809   -4.2865 H       1  LIG1        0.0655
     39 H           0.2992    2.7973    0.8863 H       1  LIG1        0.0655
     40 H          -0.6243   -2.0673    0.8902 H       1  LIG1        0.0661
     41 H           1.0926   -3.3846   -1.4596 H       1  LIG1        0.0625
     42 H           2.7435   -2.8578    2.4734 H       1  LIG1        0.0625
     43 H          -1.9982    1.9769    1.3407 H       1  LIG1        0.0655
     44 H           0.8959   -5.8147   -1.0517 H       1  LIG1        0.0654
     45 H           2.5699   -5.2634    2.8867 H       1  LIG1        0.0654
     46 H           0.0906    1.8328   -6.3263 H       1  LIG1        0.1166
     47 H           1.2716    0.6349   -6.9068 H       1  LIG1        0.1166
     48 H          -4.4541   -1.3016    0.6598 H       1  LIG1        0.0727
     49 H          -2.0243   -2.2441   -0.9017 H       1  LIG1        0.0265
     50 H          -3.0103   -0.8469   -1.3422 H       1  LIG1        0.0265
     51 H          -3.7281   -2.4702   -1.2618 H       1  LIG1        0.0265
     52 H          -2.2621   -3.1727    1.6468 H       1  LIG1        0.0265
     53 H          -3.8869   -3.6284    1.1190 H       1  LIG1        0.0265
     54 H          -3.6526   -2.6059    2.5534 H       1  LIG1        0.0265
     55 H           2.1357   -8.7902    1.9884 H       1  LIG1        0.0660
     56 H           1.7924   -7.4437    3.0793 H       1  LIG1        0.0660
     57 H           3.3098   -7.4735    2.0980 H       1  LIG1        0.0660
@<TRIPOS>BOND
     1     1     4    1
     2     1     2    1
     3     1     3    1
     4     2     5    2
     5     2     6    1
     6     3     8   ar
     7     3     7   ar
     8     4     9    1
     9     5    10    1
    10     5    11    1
    11     6    13   ar
    12     6    12   ar
    13     7    14   ar
    14     8    15   ar
    15     9    16   ar
    16     9    10   ar
    17    10    17   ar
    18    11    18   ar
    19    11    19   ar
    20    14    21    1
    21    14    20   ar
    22    15    20   ar
    23    16    22   ar
    24    17    23   ar
    25    18    24   ar
    26    19    25   ar
    27    20    26    1
    28    21    27    1
    29    22    23   ar
    30    23    28    1
    31    24    29   ar
    32    25    29   ar
    33    26    27    1
    34    28    30    1
    35    29    31    1
    36    30    33    1
    37    30    32    1
    38    31    34    1
    39     1    35    1
    40     7    36    1
    41     8    37    1
    42    15    38    1
    43    16    39    1
    44    17    40    1
    45    18    41    1
    46    19    42    1
    47    22    43    1
    48    24    44    1
    49    25    45    1
    50    27    46    1
    51    27    47    1
    52    30    48    1
    53    32    49    1
    54    32    50    1
    55    32    51    1
    56    33    52    1
    57    33    53    1
    58    33    54    1
    59    34    55    1
    60    34    56    1
    61    34    57    1
@<TRIPOS>MOLECULE
01479498K
 57 61 0 0 0
SMALL
GASTEIGER

@<TRIPOS>ATOM
      1 C           3.2024    0.4671   -0.6047 C.3     1  LIG1        0.1526
      2 C           3.0670   -0.9990   -0.3037 C.2     1  LIG1        0.0278
      3 C           2.8718    0.9032   -2.0463 C.ar    1  LIG1        0.0009
      4 O           2.4073    1.2756    0.3108 O.3     1  LIG1       -0.4789
      5 C           1.9447   -1.5420    0.2091 C.2     1  LIG1        0.0016
      6 C           4.3458   -1.7947   -0.5537 C.2     1  LIG1        0.0721
      7 C           2.6393    2.2684   -2.3182 C.ar    1  LIG1       -0.0091
      8 C           2.8254   -0.0109   -3.1276 C.ar    1  LIG1       -0.0511
      9 C           1.1451    0.7884    0.5294 C.ar    1  LIG1        0.1298
     10 C           0.8522   -0.5766    0.4706 C.ar    1  LIG1        0.0283
     11 C           1.8553   -2.9920    0.4704 C.ar    1  LIG1       -0.0165
     12 O           5.2918   -1.5331    0.2432 O.co2   1  LIG1       -0.5448
     13 O           4.3252   -2.5574   -1.5602 O.co2   1  LIG1       -0.5448
     14 C           2.3391    2.6490   -3.6103 C.ar    1  LIG1        0.1666
     15 C           2.5298    0.4038   -4.4322 C.ar    1  LIG1       -0.0158
     16 C           0.1598    1.7166    0.8542 C.ar    1  LIG1       -0.0158
     17 C          -0.4680   -0.9948    0.7068 C.ar    1  LIG1       -0.0087
     18 C           2.0952   -3.5022    1.7485 C.ar    1  LIG1       -0.0505
     19 C           1.4838   -3.8657   -0.5568 C.ar    1  LIG1       -0.0505
     20 C           2.2847    1.7407   -4.6392 C.ar    1  LIG1        0.1662
     21 O           2.0670    3.9176   -4.0230 O.3     1  LIG1       -0.4526
     22 C          -1.1481    1.2849    1.0710 C.ar    1  LIG1       -0.0164
     23 C          -1.4766   -0.0699    0.9719 C.ar    1  LIG1        0.1217
     24 C           1.9569   -4.8717    1.9926 C.ar    1  LIG1       -0.0194
     25 C           1.3474   -5.2356   -0.3112 C.ar    1  LIG1       -0.0194
     26 O           1.9725    2.3192   -5.8299 O.3     1  LIG1       -0.4526
     27 C           1.8220    3.6938   -5.4259 C.3     1  LIG1        0.2332
     28 O          -2.7926   -0.3492    1.1918 O.3     1  LIG1       -0.4893
     29 C           1.5882   -5.7443    0.9653 C.ar    1  LIG1        0.1201
     30 C          -3.4270   -1.5146    0.6514 C.3     1  LIG1        0.0946
     31 O           1.4883   -7.0611    1.3308 O.3     1  LIG1       -0.4951
     32 C          -3.1446   -1.7926   -0.8246 C.3     1  LIG1       -0.0281
     33 C          -3.2753   -2.7324    1.5565 C.3     1  LIG1       -0.0281
     34 C           1.4199   -7.9992    0.2634 C.3     1  LIG1        0.0788
     35 H           4.2373    0.7822   -0.4203 H       1  LIG1        0.0837
     36 H           2.6799    3.0102   -1.5274 H       1  LIG1        0.0659
     37 H           3.0214   -1.0699   -2.9655 H       1  LIG1        0.0623
     38 H           2.5000   -0.3108   -5.2453 H       1  LIG1        0.0655
     39 H           0.4092    2.7707    0.9186 H       1  LIG1        0.0655
     40 H          -0.6798   -2.0549    0.6799 H       1  LIG1        0.0661
     41 H           2.4064   -2.8363    2.5491 H       1  LIG1        0.0625
     42 H           1.3268   -3.4776   -1.5610 H       1  LIG1        0.0625
     43 H          -1.9207    2.0116    1.3057 H       1  LIG1        0.0655
     44 H           2.1601   -5.2602    2.9859 H       1  LIG1        0.0654
     45 H           1.0640   -5.8701   -1.1430 H       1  LIG1        0.0654
     46 H           2.5219    4.3076   -6.0049 H       1  LIG1        0.1166
     47 H           0.8006    4.0161   -5.6581 H       1  LIG1        0.1166
     48 H          -4.4937   -1.2568    0.6904 H       1  LIG1        0.0727
     49 H          -2.1627   -2.2434   -0.9881 H       1  LIG1        0.0265
     50 H          -3.1835   -0.8670   -1.4091 H       1  LIG1        0.0265
     51 H          -3.8857   -2.4902   -1.2303 H       1  LIG1        0.0265
     52 H          -2.2511   -3.1101    1.5900 H       1  LIG1        0.0265
     53 H          -3.9205   -3.5494    1.2189 H       1  LIG1        0.0265
     54 H          -3.5493   -2.4760    2.5853 H       1  LIG1        0.0265
     55 H           1.4867   -9.0026    0.6972 H       1  LIG1        0.0660
     56 H           2.2593   -7.8812   -0.4298 H       1  LIG1        0.0660
     57 H           0.4613   -7.9275   -0.2588 H       1  LIG1        0.0660
@<TRIPOS>BOND
     1     1     4    1
     2     1     2    1
     3     1     3    1
     4     2     5    2
     5     2     6    1
     6     3     8   ar
     7     3     7   ar
     8     4     9    1
     9     5    10    1
    10     5    11    1
    11     6    13   ar
    12     6    12   ar
    13     7    14   ar
    14     8    15   ar
    15     9    16   ar
    16     9    10   ar
    17    10    17   ar
    18    11    18   ar
    19    11    19   ar
    20    14    21    1
    21    14    20   ar
    22    15    20   ar
    23    16    22   ar
    24    17    23   ar
    25    18    24   ar
    26    19    25   ar
    27    20    26    1
    28    21    27    1
    29    22    23   ar
    30    23    28    1
    31    24    29   ar
    32    25    29   ar
    33    26    27    1
    34    28    30    1
    35    29    31    1
    36    30    33    1
    37    30    32    1
    38    31    34    1
    39     1    35    1
    40     7    36    1
    41     8    37    1
    42    15    38    1
    43    16    39    1
    44    17    40    1
    45    18    41    1
    46    19    42    1
    47    22    43    1
    48    24    44    1
    49    25    45    1
    50    27    46    1
    51    27    47    1
    52    30    48    1
    53    32    49    1
    54    32    50    1
    55    32    51    1
    56    33    52    1
    57    33    53    1
    58    33    54    1
    59    34    55    1
    60    34    56    1
    61    34    57    1
@<TRIPOS>MOLECULE
01479498K
 57 61 0 0 0
SMALL
GASTEIGER

@<TRIPOS>ATOM
      1 C           3.1555    0.5394   -0.5721 C.3     1  LIG1        0.1526
      2 C           3.0843   -0.9514   -0.2926 C.2     1  LIG1        0.0278
      3 C           2.7787    0.9760   -2.0111 C.ar    1  LIG1        0.0009
      4 O           2.3750    1.2947    0.4018 O.3     1  LIG1       -0.4789
      5 C           1.9385   -1.5193    0.1519 C.2     1  LIG1        0.0016
      6 C           4.4549   -1.6693   -0.4407 C.2     1  LIG1        0.0721
      7 C           3.2662    0.2786   -3.1343 C.ar    1  LIG1       -0.0091
      8 C           2.0086    2.1480   -2.2445 C.ar    1  LIG1       -0.0511
      9 C           1.1269    0.7808    0.6347 C.ar    1  LIG1        0.1298
     10 C           0.8352   -0.5727    0.4653 C.ar    1  LIG1        0.0283
     11 C           1.8102   -2.9761    0.3848 C.ar    1  LIG1       -0.0165
     12 O           4.6395   -2.7080    0.2481 O.co2   1  LIG1       -0.5448
     13 O           5.2853   -1.0914   -1.2001 O.co2   1  LIG1       -0.5448
     14 C           2.9694    0.7487   -4.3987 C.ar    1  LIG1        0.1666
     15 C           1.7053    2.5937   -3.5374 C.ar    1  LIG1       -0.0158
     16 C           0.1544    1.6739    1.0816 C.ar    1  LIG1       -0.0158
     17 C          -0.4773   -1.0135    0.7162 C.ar    1  LIG1       -0.0087
     18 C           1.9494   -3.4988    1.6757 C.ar    1  LIG1       -0.0505
     19 C           1.4594   -3.8315   -0.6651 C.ar    1  LIG1       -0.0505
     20 C           2.2077    1.8734   -4.5930 C.ar    1  LIG1        0.1662
     21 O           3.3872    0.1975   -5.5712 O.3     1  LIG1       -0.4526
     22 C          -1.1388    1.2195    1.3337 C.ar    1  LIG1       -0.0164
     23 C          -1.4646   -0.1261    1.1522 C.ar    1  LIG1        0.1217
     24 C           1.7489   -4.8611    1.9083 C.ar    1  LIG1       -0.0194
     25 C           1.2553   -5.1959   -0.4290 C.ar    1  LIG1       -0.0194
     26 O           2.0441    2.1726   -5.9121 O.3     1  LIG1       -0.4526
     27 C           2.8354    1.1292   -6.5177 C.3     1  LIG1        0.2332
     28 O          -2.7597   -0.4396    1.4613 O.3     1  LIG1       -0.4893
     29 C           1.4117   -5.7159    0.8584 C.ar    1  LIG1        0.1201
     30 C          -3.1977   -1.7971    1.3375 C.3     1  LIG1        0.0946
     31 O           1.2379   -7.0286    1.2099 O.3     1  LIG1       -0.4951
     32 C          -2.8067   -2.6024    2.5750 C.3     1  LIG1       -0.0281
     33 C          -4.7206   -1.7497    1.2179 C.3     1  LIG1       -0.0281
     34 C           1.3695   -7.9681    0.1507 C.3     1  LIG1        0.0788
     35 H           4.1753    0.9060   -0.4024 H       1  LIG1        0.0837
     36 H           3.8921   -0.6016   -3.0316 H       1  LIG1        0.0659
     37 H           1.6425    2.7348   -1.4056 H       1  LIG1        0.0623
     38 H           1.1105    3.4844   -3.6966 H       1  LIG1        0.0655
     39 H           0.4070    2.7191    1.2281 H       1  LIG1        0.0655
     40 H          -0.6952   -2.0675    0.5907 H       1  LIG1        0.0661
     41 H           2.2486   -2.8470    2.4914 H       1  LIG1        0.0625
     42 H           1.3459   -3.4326   -1.6699 H       1  LIG1        0.0625
     43 H          -1.8958    1.9165    1.6816 H       1  LIG1        0.0655
     44 H           1.8881   -5.2576    2.9100 H       1  LIG1        0.0654
     45 H           0.9769   -5.8216   -1.2682 H       1  LIG1        0.0654
     46 H           2.2050    0.5783   -7.2250 H       1  LIG1        0.1166
     47 H           3.6582    1.5935   -7.0744 H       1  LIG1        0.1166
     48 H          -2.8155   -2.2605    0.4208 H       1  LIG1        0.0727
     49 H          -3.1826   -2.1244    3.4865 H       1  LIG1        0.0265
     50 H          -1.7202   -2.6677    2.6853 H       1  LIG1        0.0265
     51 H          -3.2036   -3.6211    2.5239 H       1  LIG1        0.0265
     52 H          -5.1692   -1.2664    2.0933 H       1  LIG1        0.0265
     53 H          -5.1440   -2.7536    1.1159 H       1  LIG1        0.0265
     54 H          -5.0163   -1.1561    0.3460 H       1  LIG1        0.0265
     55 H           1.4324   -8.9659    0.5958 H       1  LIG1        0.0660
     56 H           2.2865   -7.8039   -0.4261 H       1  LIG1        0.0660
     57 H           0.4871   -7.9487   -0.4970 H       1  LIG1        0.0660
@<TRIPOS>BOND
     1     1     4    1
     2     1     2    1
     3     1     3    1
     4     2     5    2
     5     2     6    1
     6     3     8   ar
     7     3     7   ar
     8     4     9    1
     9     5    10    1
    10     5    11    1
    11     6    13   ar
    12     6    12   ar
    13     7    14   ar
    14     8    15   ar
    15     9    16   ar
    16     9    10   ar
    17    10    17   ar
    18    11    18   ar
    19    11    19   ar
    20    14    21    1
    21    14    20   ar
    22    15    20   ar
    23    16    22   ar
    24    17    23   ar
    25    18    24   ar
    26    19    25   ar
    27    20    26    1
    28    21    27    1
    29    22    23   ar
    30    23    28    1
    31    24    29   ar
    32    25    29   ar
    33    26    27    1
    34    28    30    1
    35    29    31    1
    36    30    33    1
    37    30    32    1
    38    31    34    1
    39     1    35    1
    40     7    36    1
    41     8    37    1
    42    15    38    1
    43    16    39    1
    44    17    40    1
    45    18    41    1
    46    19    42    1
    47    22    43    1
    48    24    44    1
    49    25    45    1
    50    27    46    1
    51    27    47    1
    52    30    48    1
    53    32    49    1
    54    32    50    1
    55    32    51    1
    56    33    52    1
    57    33    53    1
    58    33    54    1
    59    34    55    1
    60    34    56    1
    61    34    57    1
@<TRIPOS>MOLECULE
01479498K
 57 61 0 0 0
SMALL
GASTEIGER

@<TRIPOS>ATOM
      1 C           3.0188    0.5742   -0.5951 C.3     1  LIG1        0.1526
      2 C           2.8719   -0.9050   -0.3913 C.2     1  LIG1        0.0278
      3 C           2.7768    1.0267   -2.0435 C.ar    1  LIG1        0.0009
      4 O           2.2267    1.3735    0.3278 O.3     1  LIG1       -0.4789
      5 C           1.8019   -1.4738    0.1941 C.2     1  LIG1        0.0016
      6 C           4.1031   -1.6957   -0.8181 C.2     1  LIG1        0.0721
      7 C           3.8377    0.9567   -2.9706 C.ar    1  LIG1       -0.0091
      8 C           1.5125    1.4806   -2.4958 C.ar    1  LIG1       -0.0511
      9 C           1.0190    0.8356    0.6850 C.ar    1  LIG1        0.1298
     10 C           0.7331   -0.5278    0.5800 C.ar    1  LIG1        0.0283
     11 C           1.7555   -2.9274    0.4547 C.ar    1  LIG1       -0.0165
     12 O           3.9785   -2.3701   -1.8764 O.co2   1  LIG1       -0.5448
     13 O           5.1229   -1.5056   -0.0948 O.co2   1  LIG1       -0.5448
     14 C           3.6008    1.3431   -4.2747 C.ar    1  LIG1        0.1666
     15 C           1.3019    1.8712   -3.8229 C.ar    1  LIG1       -0.0158
     16 C           0.0482    1.7366    1.1222 C.ar    1  LIG1       -0.0158
     17 C          -0.5740   -0.9653    0.8447 C.ar    1  LIG1       -0.0087
     18 C           2.0990   -3.4163    1.7196 C.ar    1  LIG1       -0.0505
     19 C           1.3210   -3.8214   -0.5268 C.ar    1  LIG1       -0.0505
     20 C           2.3679    1.7884   -4.6878 C.ar    1  LIG1        0.1662
     21 O           4.5117    1.3366   -5.2863 O.3     1  LIG1       -0.4526
     22 C          -1.2488    1.2899    1.3688 C.ar    1  LIG1       -0.0164
     23 C          -1.5754   -0.0544    1.1853 C.ar    1  LIG1        0.1217
     24 C           1.9900   -4.7809    2.0092 C.ar    1  LIG1       -0.0194
     25 C           1.2054   -5.1833   -0.2337 C.ar    1  LIG1       -0.0194
     26 O           2.3443    2.1133   -6.0093 O.3     1  LIG1       -0.4526
     27 C           3.6893    1.7587   -6.3891 C.3     1  LIG1        0.2332
     28 O          -2.8978   -0.3594    1.3609 O.3     1  LIG1       -0.4893
     29 C           1.5335   -5.6698    1.0344 C.ar    1  LIG1        0.1201
     30 C          -3.4186   -1.4950    0.6537 C.3     1  LIG1        0.0946
     31 O           1.3612   -7.0189    1.1957 O.3     1  LIG1       -0.4951
     32 C          -4.8450   -1.7003    1.1626 C.3     1  LIG1       -0.0281
     33 C          -3.4499   -1.2519   -0.8569 C.3     1  LIG1       -0.0281
     34 C           1.8010   -7.5701    2.4298 C.3     1  LIG1        0.0788
     35 H           4.0463    0.8665   -0.3408 H       1  LIG1        0.0837
     36 H           4.8120    0.5759   -2.6783 H       1  LIG1        0.0659
     37 H           0.6690    1.5244   -1.8158 H       1  LIG1        0.0623
     38 H           0.3311    2.2130   -4.1577 H       1  LIG1        0.0655
     39 H           0.2945    2.7896    1.2200 H       1  LIG1        0.0655
     40 H          -0.7941   -2.0224    0.7525 H       1  LIG1        0.0661
     41 H           2.4645   -2.7302    2.4802 H       1  LIG1        0.0625
     42 H           1.0943   -3.4580   -1.5267 H       1  LIG1        0.0625
     43 H          -2.0167    1.9989    1.6647 H       1  LIG1        0.0655
     44 H           2.2747   -5.1094    3.0017 H       1  LIG1        0.0654
     45 H           0.8745   -5.8678   -1.0089 H       1  LIG1        0.0654
     46 H           3.6427    0.9486   -7.1258 H       1  LIG1        0.1166
     47 H           4.1573    2.6310   -6.8597 H       1  LIG1        0.1166
     48 H          -2.8549   -2.4025    0.8962 H       1  LIG1        0.0727
     49 H          -5.4599   -0.8136    0.9737 H       1  LIG1        0.0265
     50 H          -4.8441   -1.8585    2.2464 H       1  LIG1        0.0265
     51 H          -5.3176   -2.5634    0.6843 H       1  LIG1        0.0265
     52 H          -3.9722   -0.3182   -1.0917 H       1  LIG1        0.0265
     53 H          -3.9482   -2.0747   -1.3786 H       1  LIG1        0.0265
     54 H          -2.4410   -1.1588   -1.2700 H       1  LIG1        0.0265
     55 H           1.6368   -8.6515    2.3896 H       1  LIG1        0.0660
     56 H           1.2151   -7.1783    3.2680 H       1  LIG1        0.0660
     57 H           2.8723   -7.4018    2.5814 H       1  LIG1        0.0660
@<TRIPOS>BOND
     1     1     4    1
     2     1     2    1
     3     1     3    1
     4     2     5    2
     5     2     6    1
     6     3     8   ar
     7     3     7   ar
     8     4     9    1
     9     5    10    1
    10     5    11    1
    11     6    13   ar
    12     6    12   ar
    13     7    14   ar
    14     8    15   ar
    15     9    16   ar
    16     9    10   ar
    17    10    17   ar
    18    11    18   ar
    19    11    19   ar
    20    14    21    1
    21    14    20   ar
    22    15    20   ar
    23    16    22   ar
    24    17    23   ar
    25    18    24   ar
    26    19    25   ar
    27    20    26    1
    28    21    27    1
    29    22    23   ar
    30    23    28    1
    31    24    29   ar
    32    25    29   ar
    33    26    27    1
    34    28    30    1
    35    29    31    1
    36    30    33    1
    37    30    32    1
    38    31    34    1
    39     1    35    1
    40     7    36    1
    41     8    37    1
    42    15    38    1
    43    16    39    1
    44    17    40    1
    45    18    41    1
    46    19    42    1
    47    22    43    1
    48    24    44    1
    49    25    45    1
    50    27    46    1
    51    27    47    1
    52    30    48    1
    53    32    49    1
    54    32    50    1
    55    32    51    1
    56    33    52    1
    57    33    53    1
    58    33    54    1
    59    34    55    1
    60    34    56    1
    61    34    57    1
@<TRIPOS>MOLECULE
01479498K
 57 61 0 0 0
SMALL
GASTEIGER

@<TRIPOS>ATOM
      1 C           3.1084    0.5094   -0.6153 C.3     1  LIG1        0.1526
      2 C           2.9664   -0.9673   -0.3629 C.2     1  LIG1        0.0278
      3 C           2.8412    0.9538   -2.0696 C.ar    1  LIG1        0.0009
      4 O           2.3037    1.2986    0.3088 O.3     1  LIG1       -0.4789
      5 C           1.8528   -1.5280    0.1463 C.2     1  LIG1        0.0016
      6 C           4.2474   -1.7643   -0.5799 C.2     1  LIG1        0.0721
      7 C           1.9837    2.0328   -2.3677 C.ar    1  LIG1       -0.0091
      8 C           3.5030    0.3162   -3.1502 C.ar    1  LIG1       -0.0511
      9 C           1.0615    0.7852    0.5778 C.ar    1  LIG1        0.1298
     10 C           0.7664   -0.5743    0.4660 C.ar    1  LIG1        0.0283
     11 C           1.7817   -2.9755    0.4367 C.ar    1  LIG1       -0.0165
     12 O           4.2549   -2.5245   -1.5884 O.co2   1  LIG1       -0.5448
     13 O           5.1742   -1.5013    0.2367 O.co2   1  LIG1       -0.5448
     14 C           1.7884    2.3891   -3.6871 C.ar    1  LIG1        0.1666
     15 C           3.2892    0.6988   -4.4809 C.ar    1  LIG1       -0.0158
     16 C           0.0902    1.6880    1.0045 C.ar    1  LIG1       -0.0158
     17 C          -0.5407   -1.0134    0.7487 C.ar    1  LIG1       -0.0087
     18 C           2.0344   -3.4423    1.7307 C.ar    1  LIG1       -0.0505
     19 C           1.3847   -3.8804   -0.5509 C.ar    1  LIG1       -0.0505
     20 C           2.4202    1.7366   -4.7167 C.ar    1  LIG1        0.1662
     21 O           0.9810    3.3934   -4.1261 O.3     1  LIG1       -0.4526
     22 C          -1.1980    1.2359    1.2914 C.ar    1  LIG1       -0.0164
     23 C          -1.5263   -0.1167    1.1620 C.ar    1  LIG1        0.1217
     24 C           1.8579   -4.7944    2.0448 C.ar    1  LIG1       -0.0194
     25 C           1.2042   -5.2292   -0.2342 C.ar    1  LIG1       -0.0194
     26 O           2.0888    2.2417   -5.9352 O.3     1  LIG1       -0.4526
     27 C           1.1551    3.2700   -5.5511 C.3     1  LIG1        0.2332
     28 O          -2.8159   -0.4115    1.5020 O.3     1  LIG1       -0.4893
     29 C           1.4222   -5.6904    1.0667 C.ar    1  LIG1        0.1201
     30 C          -3.3298   -1.7335    1.3192 C.3     1  LIG1        0.0946
     31 O           1.1763   -7.0248    1.2523 O.3     1  LIG1       -0.4951
     32 C          -4.1418   -2.0735    2.5654 C.3     1  LIG1       -0.0281
     33 C          -4.2183   -1.7386    0.0805 C.3     1  LIG1       -0.0281
     34 C           1.2929   -7.5111    2.5824 C.3     1  LIG1        0.0788
     35 H           4.1365    0.8224   -0.3924 H       1  LIG1        0.0837
     36 H           1.4725    2.5869   -1.5895 H       1  LIG1        0.0659
     37 H           4.1967   -0.5022   -2.9628 H       1  LIG1        0.0623
     38 H           3.7936    0.1852   -5.2904 H       1  LIG1        0.0655
     39 H           0.3374    2.7400    1.1058 H       1  LIG1        0.0655
     40 H          -0.7433   -2.0719    0.6506 H       1  LIG1        0.0661
     41 H           2.3749   -2.7481    2.4958 H       1  LIG1        0.0625
     42 H           1.2263   -3.5338   -1.5692 H       1  LIG1        0.0625
     43 H          -1.9530    1.9444    1.6206 H       1  LIG1        0.0655
     44 H           2.0751   -5.1081    3.0590 H       1  LIG1        0.0654
     45 H           0.8960   -5.9220   -1.0115 H       1  LIG1        0.0654
     46 H           1.5110    4.2294   -5.9438 H       1  LIG1        0.1166
     47 H           0.1821    3.0470   -6.0046 H       1  LIG1        0.1166
     48 H          -2.5609   -2.5019    1.2227 H       1  LIG1        0.0727
     49 H          -4.9328   -1.3356    2.7374 H       1  LIG1        0.0265
     50 H          -3.4964   -2.0571    3.4508 H       1  LIG1        0.0265
     51 H          -4.5955   -3.0660    2.4856 H       1  LIG1        0.0265
     52 H          -5.0163   -0.9924    0.1668 H       1  LIG1        0.0265
     53 H          -4.6750   -2.7205   -0.0769 H       1  LIG1        0.0265
     54 H          -3.6378   -1.4776   -0.8105 H       1  LIG1        0.0265
     55 H           1.0079   -8.5676    2.5778 H       1  LIG1        0.0660
     56 H           0.6082   -6.9879    3.2586 H       1  LIG1        0.0660
     57 H           2.3267   -7.4464    2.9368 H       1  LIG1        0.0660
@<TRIPOS>BOND
     1     1     4    1
     2     1     2    1
     3     1     3    1
     4     2     5    2
     5     2     6    1
     6     3     8   ar
     7     3     7   ar
     8     4     9    1
     9     5    10    1
    10     5    11    1
    11     6    13   ar
    12     6    12   ar
    13     7    14   ar
    14     8    15   ar
    15     9    16   ar
    16     9    10   ar
    17    10    17   ar
    18    11    18   ar
    19    11    19   ar
    20    14    21    1
    21    14    20   ar
    22    15    20   ar
    23    16    22   ar
    24    17    23   ar
    25    18    24   ar
    26    19    25   ar
    27    20    26    1
    28    21    27    1
    29    22    23   ar
    30    23    28    1
    31    24    29   ar
    32    25    29   ar
    33    26    27    1
    34    28    30    1
    35    29    31    1
    36    30    33    1
    37    30    32    1
    38    31    34    1
    39     1    35    1
    40     7    36    1
    41     8    37    1
    42    15    38    1
    43    16    39    1
    44    17    40    1
    45    18    41    1
    46    19    42    1
    47    22    43    1
    48    24    44    1
    49    25    45    1
    50    27    46    1
    51    27    47    1
    52    30    48    1
    53    32    49    1
    54    32    50    1
    55    32    51    1
    56    33    52    1
    57    33    53    1
    58    33    54    1
    59    34    55    1
    60    34    56    1
    61    34    57    1
@<TRIPOS>MOLECULE
01479498K
 57 61 0 0 0
SMALL
GASTEIGER

@<TRIPOS>ATOM
      1 C           3.0639    0.5663   -0.5451 C.3     1  LIG1        0.1526
      2 C           2.9224   -0.9159   -0.3447 C.2     1  LIG1        0.0278
      3 C           2.8640    1.0151   -2.0003 C.ar    1  LIG1        0.0009
      4 O           2.2378    1.3663    0.3448 O.3     1  LIG1       -0.4789
      5 C           1.8547   -1.4902    0.2368 C.2     1  LIG1        0.0016
      6 C           4.1501   -1.7024   -0.7973 C.2     1  LIG1        0.0721
      7 C           1.6304    1.4954   -2.4783 C.ar    1  LIG1       -0.0091
      8 C           3.9483    0.9139   -2.9098 C.ar    1  LIG1       -0.0511
      9 C           1.0328    0.8161    0.6873 C.ar    1  LIG1        0.1298
     10 C           0.7739   -0.5531    0.6156 C.ar    1  LIG1        0.0283
     11 C           1.7926   -2.9489    0.4689 C.ar    1  LIG1       -0.0165
     12 O           5.2024   -1.4547   -0.1410 O.co2   1  LIG1       -0.5448
     13 O           3.9900   -2.4238   -1.8203 O.co2   1  LIG1       -0.5448
     14 C           1.5308    1.8637   -3.8037 C.ar    1  LIG1        0.1666
     15 C           3.8176    1.2911   -4.2517 C.ar    1  LIG1       -0.0158
     16 C           0.0367    1.7086    1.0828 C.ar    1  LIG1       -0.0158
     17 C          -0.5245   -1.0101    0.8974 C.ar    1  LIG1       -0.0087
     18 C           2.1362   -3.4755    1.7172 C.ar    1  LIG1       -0.0505
     19 C           1.3059   -3.8050   -0.5237 C.ar    1  LIG1       -0.0505
     20 C           2.5946    1.7659   -4.6671 C.ar    1  LIG1        0.1662
     21 O           0.4120    2.3490   -4.4084 O.3     1  LIG1       -0.4526
     22 C          -1.2531    1.2420    1.3343 C.ar    1  LIG1       -0.0164
     23 C          -1.5494   -0.1168    1.2148 C.ar    1  LIG1        0.1217
     24 C           1.9545   -4.8362    1.9780 C.ar    1  LIG1       -0.0194
     25 C           1.1180   -5.1656   -0.2590 C.ar    1  LIG1       -0.0194
     26 O           2.2811    2.1760   -5.9261 O.3     1  LIG1       -0.4526
     27 C           0.8904    2.5144   -5.7564 C.3     1  LIG1        0.2332
     28 O          -2.8649   -0.4360    1.4099 O.3     1  LIG1       -0.4893
     29 C           1.4197   -5.6816    1.0029 C.ar    1  LIG1        0.1201
     30 C          -3.3030   -1.7729    1.1363 C.3     1  LIG1        0.0946
     31 O           1.2475   -6.9819    1.3969 O.3     1  LIG1       -0.4951
     32 C          -4.6831   -1.9102    1.7779 C.3     1  LIG1       -0.0281
     33 C          -3.4190   -2.0256   -0.3674 C.3     1  LIG1       -0.0281
     34 C           0.4462   -7.7915    0.5462 C.3     1  LIG1        0.0788
     35 H           4.0804    0.8667   -0.2598 H       1  LIG1        0.0837
     36 H           0.7606    1.5753   -1.8399 H       1  LIG1        0.0659
     37 H           4.8999    0.5050   -2.5665 H       1  LIG1        0.0623
     38 H           4.6489    1.1920   -4.9391 H       1  LIG1        0.0655
     39 H           0.2579    2.7698    1.1461 H       1  LIG1        0.0655
     40 H          -0.7184   -2.0741    0.8287 H       1  LIG1        0.0661
     41 H           2.5430   -2.8249    2.4873 H       1  LIG1        0.0625
     42 H           1.0850   -3.4075   -1.5124 H       1  LIG1        0.0625
     43 H          -2.0380    1.9452    1.5974 H       1  LIG1        0.0655
     44 H           2.2247   -5.2345    2.9514 H       1  LIG1        0.0654
     45 H           0.7498   -5.7897   -1.0645 H       1  LIG1        0.0654
     46 H           0.7472    3.5607   -6.0509 H       1  LIG1        0.1166
     47 H           0.2908    1.8809   -6.4210 H       1  LIG1        0.1166
     48 H          -2.6471   -2.5080    1.6160 H       1  LIG1        0.0727
     49 H          -5.3871   -1.1859    1.3530 H       1  LIG1        0.0265
     50 H          -4.6278   -1.7027    2.8519 H       1  LIG1        0.0265
     51 H          -5.0891   -2.9170    1.6369 H       1  LIG1        0.0265
     52 H          -4.0568   -1.2721   -0.8432 H       1  LIG1        0.0265
     53 H          -3.8378   -3.0170   -0.5684 H       1  LIG1        0.0265
     54 H          -2.4470   -1.9672   -0.8659 H       1  LIG1        0.0265
     55 H           0.2886   -8.7503    1.0500 H       1  LIG1        0.0660
     56 H           0.9561   -7.9930   -0.4009 H       1  LIG1        0.0660
     57 H          -0.5383   -7.3411    0.3787 H       1  LIG1        0.0660
@<TRIPOS>BOND
     1     1     4    1
     2     1     2    1
     3     1     3    1
     4     2     5    2
     5     2     6    1
     6     3     8   ar
     7     3     7   ar
     8     4     9    1
     9     5    10    1
    10     5    11    1
    11     6    13   ar
    12     6    12   ar
    13     7    14   ar
    14     8    15   ar
    15     9    16   ar
    16     9    10   ar
    17    10    17   ar
    18    11    18   ar
    19    11    19   ar
    20    14    21    1
    21    14    20   ar
    22    15    20   ar
    23    16    22   ar
    24    17    23   ar
    25    18    24   ar
    26    19    25   ar
    27    20    26    1
    28    21    27    1
    29    22    23   ar
    30    23    28    1
    31    24    29   ar
    32    25    29   ar
    33    26    27    1
    34    28    30    1
    35    29    31    1
    36    30    33    1
    37    30    32    1
    38    31    34    1
    39     1    35    1
    40     7    36    1
    41     8    37    1
    42    15    38    1
    43    16    39    1
    44    17    40    1
    45    18    41    1
    46    19    42    1
    47    22    43    1
    48    24    44    1
    49    25    45    1
    50    27    46    1
    51    27    47    1
    52    30    48    1
    53    32    49    1
    54    32    50    1
    55    32    51    1
    56    33    52    1
    57    33    53    1
    58    33    54    1
    59    34    55    1
    60    34    56    1
    61    34    57    1
@<TRIPOS>MOLECULE
01479498K
 57 61 0 0 0
SMALL
GASTEIGER

@<TRIPOS>ATOM
      1 C           3.1555    0.4908   -0.5634 C.3     1  LIG1        0.1526
      2 C           3.0019   -0.9775   -0.2903 C.2     1  LIG1        0.0278
      3 C           2.8422    0.9633   -1.9965 C.ar    1  LIG1        0.0009
      4 O           2.3661    1.2874    0.3682 O.3     1  LIG1       -0.4789
      5 C           1.8694   -1.5181    0.2005 C.2     1  LIG1        0.0016
      6 C           4.2809   -1.7786   -0.5087 C.2     1  LIG1        0.0721
      7 C           2.8080    0.0826   -3.0942 C.ar    1  LIG1       -0.0091
      8 C           2.6224    2.3472   -2.2373 C.ar    1  LIG1       -0.0511
      9 C           1.0944    0.8134    0.5617 C.ar    1  LIG1        0.1298
     10 C           0.7819   -0.5459    0.4575 C.ar    1  LIG1        0.0283
     11 C           1.7822   -2.9632    0.4893 C.ar    1  LIG1       -0.0165
     12 O           4.2965   -2.5091   -1.5378 O.co2   1  LIG1       -0.5448
     13 O           5.1890   -1.5573    0.3420 O.co2   1  LIG1       -0.5448
     14 C           2.5405    0.5957   -4.3484 C.ar    1  LIG1        0.1666
     15 C           2.3457    2.8396   -3.5171 C.ar    1  LIG1       -0.0158
     16 C           0.1210    1.7486    0.9059 C.ar    1  LIG1       -0.0158
     17 C          -0.5485   -0.9487    0.6547 C.ar    1  LIG1       -0.0087
     18 C           2.1375   -3.4491    1.7513 C.ar    1  LIG1       -0.0505
     19 C           1.3082   -3.8539   -0.4776 C.ar    1  LIG1       -0.0505
     20 C           2.3134    1.9357   -4.5531 C.ar    1  LIG1        0.1662
     21 O           2.4708   -0.1216   -5.5032 O.3     1  LIG1       -0.4526
     22 C          -1.1968    1.3350    1.0903 C.ar    1  LIG1       -0.0164
     23 C          -1.5436   -0.0092    0.9369 C.ar    1  LIG1        0.1217
     24 C           2.0020   -4.8090    2.0527 C.ar    1  LIG1       -0.0194
     25 C           1.1662   -5.2100   -0.1724 C.ar    1  LIG1       -0.0194
     26 O           2.0716    2.2309   -5.8594 O.3     1  LIG1       -0.4526
     27 C           2.2057    0.9234   -6.4547 C.3     1  LIG1        0.2332
     28 O          -2.8747   -0.2798    1.1019 O.3     1  LIG1       -0.4893
     29 C           1.5088   -5.6948    1.0928 C.ar    1  LIG1        0.1201
     30 C          -3.4019   -1.4732    0.5086 C.3     1  LIG1        0.0946
     31 O           1.3119   -7.0390    1.2654 O.3     1  LIG1       -0.4951
     32 C          -4.8124   -1.6457    1.0686 C.3     1  LIG1       -0.0281
     33 C          -3.4680   -1.3438   -1.0127 C.3     1  LIG1       -0.0281
     34 C           1.7915   -7.5960    2.4818 C.3     1  LIG1        0.0788
     35 H           4.1930    0.7895   -0.3666 H       1  LIG1        0.0837
     36 H           2.9905   -0.9827   -2.9833 H       1  LIG1        0.0659
     37 H           2.6621    3.0468   -1.4046 H       1  LIG1        0.0623
     38 H           2.1682    3.8941   -3.6864 H       1  LIG1        0.0655
     39 H           0.3886    2.7949    1.0087 H       1  LIG1        0.0655
     40 H          -0.7830   -2.0042    0.5834 H       1  LIG1        0.0661
     41 H           2.5374   -2.7662    2.4977 H       1  LIG1        0.0625
     42 H           1.0682   -3.4931   -1.4745 H       1  LIG1        0.0625
     43 H          -1.9615    2.0654    1.3362 H       1  LIG1        0.0655
     44 H           2.2986   -5.1369    3.0418 H       1  LIG1        0.0654
     45 H           0.8044   -5.8932   -0.9352 H       1  LIG1        0.0654
     46 H           1.2778    0.6856   -6.9869 H       1  LIG1        0.1166
     47 H           3.0261    0.9539   -7.1815 H       1  LIG1        0.1166
     48 H          -2.8272   -2.3556    0.8069 H       1  LIG1        0.0727
     49 H          -5.4378   -0.7755    0.8363 H       1  LIG1        0.0265
     50 H          -4.7819   -1.7283    2.1603 H       1  LIG1        0.0265
     51 H          -5.2949   -2.5418    0.6651 H       1  LIG1        0.0265
     52 H          -4.0073   -0.4350   -1.3051 H       1  LIG1        0.0265
     53 H          -3.9664   -2.2082   -1.4631 H       1  LIG1        0.0265
     54 H          -2.4676   -1.2677   -1.4520 H       1  LIG1        0.0265
     55 H           1.6162   -8.6758    2.4463 H       1  LIG1        0.0660
     56 H           1.2398   -7.1999    3.3412 H       1  LIG1        0.0660
     57 H           2.8694   -7.4379    2.5952 H       1  LIG1        0.0660
@<TRIPOS>BOND
     1     1     4    1
     2     1     2    1
     3     1     3    1
     4     2     5    2
     5     2     6    1
     6     3     8   ar
     7     3     7   ar
     8     4     9    1
     9     5    10    1
    10     5    11    1
    11     6    13   ar
    12     6    12   ar
    13     7    14   ar
    14     8    15   ar
    15     9    16   ar
    16     9    10   ar
    17    10    17   ar
    18    11    18   ar
    19    11    19   ar
    20    14    21    1
    21    14    20   ar
    22    15    20   ar
    23    16    22   ar
    24    17    23   ar
    25    18    24   ar
    26    19    25   ar
    27    20    26    1
    28    21    27    1
    29    22    23   ar
    30    23    28    1
    31    24    29   ar
    32    25    29   ar
    33    26    27    1
    34    28    30    1
    35    29    31    1
    36    30    33    1
    37    30    32    1
    38    31    34    1
    39     1    35    1
    40     7    36    1
    41     8    37    1
    42    15    38    1
    43    16    39    1
    44    17    40    1
    45    18    41    1
    46    19    42    1
    47    22    43    1
    48    24    44    1
    49    25    45    1
    50    27    46    1
    51    27    47    1
    52    30    48    1
    53    32    49    1
    54    32    50    1
    55    32    51    1
    56    33    52    1
    57    33    53    1
    58    33    54    1
    59    34    55    1
    60    34    56    1
    61    34    57    1
@<TRIPOS>MOLECULE
01479498K
 57 61 0 0 0
SMALL
GASTEIGER

@<TRIPOS>ATOM
      1 C           3.0696    0.5702   -0.5641 C.3     1  LIG1        0.1526
      2 C           2.9314   -0.9100   -0.3449 C.2     1  LIG1        0.0278
      3 C           2.8311    1.0085   -2.0172 C.ar    1  LIG1        0.0009
      4 O           2.2682    1.3736    0.3448 O.3     1  LIG1       -0.4789
      5 C           1.8586   -1.4752    0.2412 C.2     1  LIG1        0.0016
      6 C           4.1675   -1.6960   -0.7790 C.2     1  LIG1        0.0721
      7 C           1.5911    1.5055   -2.4600 C.ar    1  LIG1       -0.0091
      8 C           3.8853    0.8892   -2.9583 C.ar    1  LIG1       -0.0511
      9 C           1.0534    0.8390    0.6793 C.ar    1  LIG1        0.1298
     10 C           0.7813   -0.5289    0.6105 C.ar    1  LIG1        0.0283
     11 C           1.7999   -2.9294    0.4982 C.ar    1  LIG1       -0.0165
     12 O           5.2254   -1.3928   -0.1549 O.co2   1  LIG1       -0.5448
     13 O           4.0079   -2.4781   -1.7560 O.co2   1  LIG1       -0.5448
     14 C           1.4572    1.8760   -3.7820 C.ar    1  LIG1        0.1666
     15 C           3.7194    1.2695   -4.2972 C.ar    1  LIG1       -0.0158
     16 C           0.0634    1.7490    1.0486 C.ar    1  LIG1       -0.0158
     17 C          -0.5242   -0.9695    0.8868 C.ar    1  LIG1       -0.0087
     18 C           2.1958   -3.4360    1.7403 C.ar    1  LIG1       -0.0505
     19 C           1.2839   -3.8040   -0.4617 C.ar    1  LIG1       -0.0505
     20 C           2.4939    1.7630   -4.6763 C.ar    1  LIG1        0.1662
     21 O           0.3284    2.3808   -4.3508 O.3     1  LIG1       -0.4526
     22 C          -1.2339    1.3000    1.2856 C.ar    1  LIG1       -0.0164
     23 C          -1.5358   -0.0599    1.2015 C.ar    1  LIG1        0.1217
     24 C           2.0547   -4.7982    2.0305 C.ar    1  LIG1       -0.0194
     25 C           1.1368   -5.1622   -0.1679 C.ar    1  LIG1       -0.0194
     26 O           2.1487    2.1819   -5.9236 O.3     1  LIG1       -0.4526
     27 C           0.7702    2.5473   -5.7112 C.3     1  LIG1        0.2332
     28 O          -2.8552   -0.3662    1.3891 O.3     1  LIG1       -0.4893
     29 C           1.5134   -5.6657    1.0798 C.ar    1  LIG1        0.1201
     30 C          -3.1889   -1.7012    1.7839 C.3     1  LIG1        0.0946
     31 O           1.2982   -7.0079    1.2463 O.3     1  LIG1       -0.4951
     32 C          -4.4147   -1.5771    2.6874 C.3     1  LIG1       -0.0281
     33 C          -3.5364   -2.5522    0.5646 C.3     1  LIG1       -0.0281
     34 C           1.7522   -7.5767    2.4667 C.3     1  LIG1        0.0788
     35 H           4.0927    0.8764   -0.3099 H       1  LIG1        0.0837
     36 H           0.7398    1.6012   -1.8003 H       1  LIG1        0.0659
     37 H           4.8416    0.4700   -2.6424 H       1  LIG1        0.0623
     38 H           4.5295    1.1600   -5.0078 H       1  LIG1        0.0655
     39 H           0.2956    2.8085    1.0967 H       1  LIG1        0.0655
     40 H          -0.7379   -2.0284    0.8058 H       1  LIG1        0.0661
     41 H           2.6224   -2.7660    2.4834 H       1  LIG1        0.0625
     42 H           1.0125   -3.4271   -1.4450 H       1  LIG1        0.0625
     43 H          -2.0163    2.0148    1.5233 H       1  LIG1        0.0655
     44 H           2.3806   -5.1420    3.0050 H       1  LIG1        0.0654
     45 H           0.7388   -5.8305   -0.9258 H       1  LIG1        0.0654
     46 H           0.6400    3.5988   -5.9928 H       1  LIG1        0.1166
     47 H           0.1384    1.9318   -6.3624 H       1  LIG1        0.1166
     48 H          -2.3861   -2.1623    2.3721 H       1  LIG1        0.0727
     49 H          -5.2525   -1.1177    2.1497 H       1  LIG1        0.0265
     50 H          -4.1961   -0.9248    3.5397 H       1  LIG1        0.0265
     51 H          -4.7338   -2.5531    3.0645 H       1  LIG1        0.0265
     52 H          -4.3470   -2.0964   -0.0145 H       1  LIG1        0.0265
     53 H          -3.8447   -3.5587    0.8654 H       1  LIG1        0.0265
     54 H          -2.6872   -2.6474   -0.1180 H       1  LIG1        0.0265
     55 H           1.5390   -8.6497    2.4345 H       1  LIG1        0.0660
     56 H           1.2117   -7.1582    3.3223 H       1  LIG1        0.0660
     57 H           2.8342   -7.4561    2.5832 H       1  LIG1        0.0660
@<TRIPOS>BOND
     1     1     4    1
     2     1     2    1
     3     1     3    1
     4     2     5    2
     5     2     6    1
     6     3     8   ar
     7     3     7   ar
     8     4     9    1
     9     5    10    1
    10     5    11    1
    11     6    13   ar
    12     6    12   ar
    13     7    14   ar
    14     8    15   ar
    15     9    16   ar
    16     9    10   ar
    17    10    17   ar
    18    11    18   ar
    19    11    19   ar
    20    14    21    1
    21    14    20   ar
    22    15    20   ar
    23    16    22   ar
    24    17    23   ar
    25    18    24   ar
    26    19    25   ar
    27    20    26    1
    28    21    27    1
    29    22    23   ar
    30    23    28    1
    31    24    29   ar
    32    25    29   ar
    33    26    27    1
    34    28    30    1
    35    29    31    1
    36    30    33    1
    37    30    32    1
    38    31    34    1
    39     1    35    1
    40     7    36    1
    41     8    37    1
    42    15    38    1
    43    16    39    1
    44    17    40    1
    45    18    41    1
    46    19    42    1
    47    22    43    1
    48    24    44    1
    49    25    45    1
    50    27    46    1
    51    27    47    1
    52    30    48    1
    53    32    49    1
    54    32    50    1
    55    32    51    1
    56    33    52    1
    57    33    53    1
    58    33    54    1
    59    34    55    1
    60    34    56    1
    61    34    57    1
@<TRIPOS>MOLECULE
01479498K
 57 61 0 0 0
SMALL
GASTEIGER

@<TRIPOS>ATOM
      1 C           3.0357    0.5776   -0.5735 C.3     1  LIG1        0.1526
      2 C           2.8836   -0.8986   -0.3525 C.2     1  LIG1        0.0278
      3 C           2.8406    1.0130   -2.0326 C.ar    1  LIG1        0.0009
      4 O           2.2150    1.3955    0.3032 O.3     1  LIG1       -0.4789
      5 C           1.8097   -1.4616    0.2316 C.2     1  LIG1        0.0016
      6 C           4.1181   -1.6952   -0.7606 C.2     1  LIG1        0.0721
      7 C           1.6126    1.5053   -2.5129 C.ar    1  LIG1       -0.0091
      8 C           3.9233    0.8940   -2.9407 C.ar    1  LIG1       -0.0511
      9 C           1.0100    0.8562    0.6638 C.ar    1  LIG1        0.1298
     10 C           0.7403   -0.5127    0.6138 C.ar    1  LIG1        0.0283
     11 C           1.7491   -2.9159    0.4875 C.ar    1  LIG1       -0.0165
     12 O           5.1320   -1.4970   -0.0317 O.co2   1  LIG1       -0.5448
     13 O           4.0080   -2.3751   -1.8173 O.co2   1  LIG1       -0.5448
     14 C           1.5180    1.8708   -3.8391 C.ar    1  LIG1        0.1666
     15 C           3.7982    1.2687   -4.2846 C.ar    1  LIG1       -0.0158
     16 C           0.0275    1.7623    1.0629 C.ar    1  LIG1       -0.0158
     17 C          -0.5525   -0.9582    0.9419 C.ar    1  LIG1       -0.0087
     18 C           2.0350   -3.4102    1.7644 C.ar    1  LIG1       -0.0505
     19 C           1.3320   -3.8015   -0.5093 C.ar    1  LIG1       -0.0505
     20 C           2.5811    1.7577   -4.7016 C.ar    1  LIG1        0.1662
     21 O           0.4060    2.3694   -4.4461 O.3     1  LIG1       -0.4526
     22 C          -1.2544    1.3065    1.3665 C.ar    1  LIG1       -0.0164
     23 C          -1.5538   -0.0551    1.3044 C.ar    1  LIG1        0.1217
     24 C           1.8705   -4.7696    2.0539 C.ar    1  LIG1       -0.0194
     25 C           1.1648   -5.1580   -0.2177 C.ar    1  LIG1       -0.0194
     26 O           2.2729    2.1695   -5.9617 O.3     1  LIG1       -0.4526
     27 C           0.8865    2.5240   -5.7944 C.3     1  LIG1        0.2332
     28 O          -2.8557   -0.3662    1.5847 O.3     1  LIG1       -0.4893
     29 C           1.4132   -5.6459    1.0678 C.ar    1  LIG1        0.1201
     30 C          -3.1934   -1.7328    1.8458 C.3     1  LIG1        0.0946
     31 O           1.1757   -6.9846    1.2316 O.3     1  LIG1       -0.4951
     32 C          -4.3797   -1.7025    2.8079 C.3     1  LIG1       -0.0281
     33 C          -3.5973   -2.4402    0.5545 C.3     1  LIG1       -0.0281
     34 C           1.2749   -7.4871    2.5571 C.3     1  LIG1        0.0788
     35 H           4.0547    0.8730   -0.2911 H       1  LIG1        0.0837
     36 H           0.7439    1.5985   -1.8748 H       1  LIG1        0.0659
     37 H           4.8695    0.4746   -2.5965 H       1  LIG1        0.0623
     38 H           4.6276    1.1574   -4.9712 H       1  LIG1        0.0655
     39 H           0.2556    2.8231    1.0994 H       1  LIG1        0.0655
     40 H          -0.7599   -2.0198    0.8759 H       1  LIG1        0.0661
     41 H           2.3922   -2.7324    2.5360 H       1  LIG1        0.0625
     42 H           1.1505   -3.4344   -1.5169 H       1  LIG1        0.0625
     43 H          -2.0264    2.0181    1.6442 H       1  LIG1        0.0655
     44 H           2.1152   -5.1056    3.0545 H       1  LIG1        0.0654
     45 H           0.8419   -5.8349   -1.0032 H       1  LIG1        0.0654
     46 H           0.7555    3.5704   -6.0924 H       1  LIG1        0.1166
     47 H           0.2805    1.8946   -6.4563 H       1  LIG1        0.1166
     48 H          -2.3764   -2.2626    2.3500 H       1  LIG1        0.0727
     49 H          -5.2311   -1.1721    2.3653 H       1  LIG1        0.0265
     50 H          -4.1148   -1.1603    3.7225 H       1  LIG1        0.0265
     51 H          -4.6989   -2.7130    3.0799 H       1  LIG1        0.0265
     52 H          -4.4216   -1.9141    0.0607 H       1  LIG1        0.0265
     53 H          -3.9093   -3.4706    0.7528 H       1  LIG1        0.0265
     54 H          -2.7738   -2.4671   -0.1649 H       1  LIG1        0.0265
     55 H           0.9764   -8.5397    2.5385 H       1  LIG1        0.0660
     56 H           0.5914   -6.9628    3.2339 H       1  LIG1        0.0660
     57 H           2.3063   -7.4395    2.9206 H       1  LIG1        0.0660
@<TRIPOS>BOND
     1     1     4    1
     2     1     2    1
     3     1     3    1
     4     2     5    2
     5     2     6    1
     6     3     8   ar
     7     3     7   ar
     8     4     9    1
     9     5    10    1
    10     5    11    1
    11     6    13   ar
    12     6    12   ar
    13     7    14   ar
    14     8    15   ar
    15     9    16   ar
    16     9    10   ar
    17    10    17   ar
    18    11    18   ar
    19    11    19   ar
    20    14    21    1
    21    14    20   ar
    22    15    20   ar
    23    16    22   ar
    24    17    23   ar
    25    18    24   ar
    26    19    25   ar
    27    20    26    1
    28    21    27    1
    29    22    23   ar
    30    23    28    1
    31    24    29   ar
    32    25    29   ar
    33    26    27    1
    34    28    30    1
    35    29    31    1
    36    30    33    1
    37    30    32    1
    38    31    34    1
    39     1    35    1
    40     7    36    1
    41     8    37    1
    42    15    38    1
    43    16    39    1
    44    17    40    1
    45    18    41    1
    46    19    42    1
    47    22    43    1
    48    24    44    1
    49    25    45    1
    50    27    46    1
    51    27    47    1
    52    30    48    1
    53    32    49    1
    54    32    50    1
    55    32    51    1
    56    33    52    1
    57    33    53    1
    58    33    54    1
    59    34    55    1
    60    34    56    1
    61    34    57    1
@<TRIPOS>MOLECULE
01479498K
 57 61 0 0 0
SMALL
GASTEIGER

@<TRIPOS>ATOM
      1 C           3.0457    0.5692   -0.6154 C.3     1  LIG1        0.1526
      2 C           2.8932   -0.9123   -0.4236 C.2     1  LIG1        0.0278
      3 C           2.8470    1.0268   -2.0667 C.ar    1  LIG1        0.0009
      4 O           2.2288    1.3779    0.2738 O.3     1  LIG1       -0.4789
      5 C           1.8323   -1.4834    0.1761 C.2     1  LIG1        0.0016
      6 C           4.1102   -1.7051   -0.8925 C.2     1  LIG1        0.0721
      7 C           1.6166    1.5240   -2.5350 C.ar    1  LIG1       -0.0091
      8 C           3.9273    0.9190   -2.9799 C.ar    1  LIG1       -0.0511
      9 C           1.0425    0.8258    0.6710 C.ar    1  LIG1        0.1298
     10 C           0.7751   -0.5416    0.6054 C.ar    1  LIG1        0.0283
     11 C           1.7728   -2.9415    0.4117 C.ar    1  LIG1       -0.0165
     12 O           5.1700   -1.4694   -0.2446 O.co2   1  LIG1       -0.5448
     13 O           3.9359   -2.4199   -1.9178 O.co2   1  LIG1       -0.5448
     14 C           1.5166    1.9012   -3.8580 C.ar    1  LIG1        0.1666
     15 C           3.7959    1.3053   -4.3188 C.ar    1  LIG1       -0.0158
     16 C           0.0788    1.7148    1.1470 C.ar    1  LIG1       -0.0158
     17 C          -0.5011   -0.9997    0.9789 C.ar    1  LIG1       -0.0087
     18 C           2.1040   -3.4588    1.6676 C.ar    1  LIG1       -0.0505
     19 C           1.2973   -3.8054   -0.5794 C.ar    1  LIG1       -0.0505
     20 C           2.5766    1.7960   -4.7260 C.ar    1  LIG1        0.1662
     21 O           0.4016    2.4031   -4.4563 O.3     1  LIG1       -0.4526
     22 C          -1.1822    1.2448    1.5146 C.ar    1  LIG1       -0.0164
     23 C          -1.4868   -0.1134    1.4158 C.ar    1  LIG1        0.1217
     24 C           1.9216   -4.8172    1.9375 C.ar    1  LIG1       -0.0194
     25 C           1.1099   -5.1648   -0.3058 C.ar    1  LIG1       -0.0194
     26 O           2.2636    2.2169   -5.9816 O.3     1  LIG1       -0.4526
     27 C           0.8768    2.5682   -5.8058 C.3     1  LIG1        0.2332
     28 O          -2.7609   -0.4450    1.7883 O.3     1  LIG1       -0.4893
     29 C           1.3991   -5.6708    0.9629 C.ar    1  LIG1        0.1201
     30 C          -3.2299   -1.7718    1.5190 C.3     1  LIG1        0.0946
     31 O           1.2257   -6.9681    1.3660 O.3     1  LIG1       -0.4951
     32 C          -2.9238   -2.6822    2.7052 C.3     1  LIG1       -0.0281
     33 C          -4.7406   -1.6725    1.3163 C.3     1  LIG1       -0.0281
     34 C           0.4403   -7.7887    0.5116 C.3     1  LIG1        0.0788
     35 H           4.0658    0.8592   -0.3308 H       1  LIG1        0.0837
     36 H           0.7522    1.6096   -1.8888 H       1  LIG1        0.0659
     37 H           4.8756    0.4983   -2.6425 H       1  LIG1        0.0623
     38 H           4.6229    1.2010   -5.0102 H       1  LIG1        0.0655
     39 H           0.3070    2.7744    1.2072 H       1  LIG1        0.0655
     40 H          -0.6980   -2.0638    0.9214 H       1  LIG1        0.0661
     41 H           2.5011   -2.8017    2.4372 H       1  LIG1        0.0625
     42 H           1.0853   -3.4157   -1.5731 H       1  LIG1        0.0625
     43 H          -1.9353    1.9436    1.8672 H       1  LIG1        0.0655
     44 H           2.1813   -5.2073    2.9171 H       1  LIG1        0.0654
     45 H           0.7512   -5.7958   -1.1104 H       1  LIG1        0.0654
     46 H           0.7429    3.6165   -6.0966 H       1  LIG1        0.1166
     47 H           0.2690    1.9424   -6.4699 H       1  LIG1        0.1166
     48 H          -2.8091   -2.1743    0.5902 H       1  LIG1        0.0727
     49 H          -3.3568   -2.2793    3.6276 H       1  LIG1        0.0265
     50 H          -1.8465   -2.7631    2.8788 H       1  LIG1        0.0265
     51 H          -3.3203   -3.6892    2.5426 H       1  LIG1        0.0265
     52 H          -5.2297   -1.2407    2.1965 H       1  LIG1        0.0265
     53 H          -5.1804   -2.6544    1.1155 H       1  LIG1        0.0265
     54 H          -4.9683   -1.0107    0.4734 H       1  LIG1        0.0265
     55 H           0.2803   -8.7438    1.0214 H       1  LIG1        0.0660
     56 H           0.9641   -7.9958   -0.4268 H       1  LIG1        0.0660
     57 H          -0.5440   -7.3446    0.3265 H       1  LIG1        0.0660
@<TRIPOS>BOND
     1     1     4    1
     2     1     2    1
     3     1     3    1
     4     2     5    2
     5     2     6    1
     6     3     8   ar
     7     3     7   ar
     8     4     9    1
     9     5    10    1
    10     5    11    1
    11     6    13   ar
    12     6    12   ar
    13     7    14   ar
    14     8    15   ar
    15     9    16   ar
    16     9    10   ar
    17    10    17   ar
    18    11    18   ar
    19    11    19   ar
    20    14    21    1
    21    14    20   ar
    22    15    20   ar
    23    16    22   ar
    24    17    23   ar
    25    18    24   ar
    26    19    25   ar
    27    20    26    1
    28    21    27    1
    29    22    23   ar
    30    23    28    1
    31    24    29   ar
    32    25    29   ar
    33    26    27    1
    34    28    30    1
    35    29    31    1
    36    30    33    1
    37    30    32    1
    38    31    34    1
    39     1    35    1
    40     7    36    1
    41     8    37    1
    42    15    38    1
    43    16    39    1
    44    17    40    1
    45    18    41    1
    46    19    42    1
    47    22    43    1
    48    24    44    1
    49    25    45    1
    50    27    46    1
    51    27    47    1
    52    30    48    1
    53    32    49    1
    54    32    50    1
    55    32    51    1
    56    33    52    1
    57    33    53    1
    58    33    54    1
    59    34    55    1
    60    34    56    1
    61    34    57    1
@<TRIPOS>MOLECULE
01479498K
 57 61 0 0 0
SMALL
GASTEIGER

@<TRIPOS>ATOM
      1 C           3.1495    0.4922   -0.5769 C.3     1  LIG1        0.1526
      2 C           2.9398   -0.9797   -0.3383 C.2     1  LIG1        0.0278
      3 C           2.8857    0.9584   -2.0255 C.ar    1  LIG1        0.0009
      4 O           2.3966    1.3065    0.3693 O.3     1  LIG1       -0.4789
      5 C           1.8067   -1.4905    0.1791 C.2     1  LIG1        0.0016
      6 C           4.1761   -1.8332   -0.6048 C.2     1  LIG1        0.0721
      7 C           2.0158    2.0282   -2.3177 C.ar    1  LIG1       -0.0091
      8 C           3.5582    0.3366   -3.1093 C.ar    1  LIG1       -0.0511
      9 C           1.1293    0.8524    0.6333 C.ar    1  LIG1        0.1298
     10 C           0.7669   -0.4903    0.5022 C.ar    1  LIG1        0.0283
     11 C           1.6761   -2.9367    0.4527 C.ar    1  LIG1       -0.0165
     12 O           5.1465   -1.6088    0.1731 O.co2   1  LIG1       -0.5448
     13 O           4.1134   -2.5848   -1.6177 O.co2   1  LIG1       -0.5448
     14 C           1.8188    2.3914   -3.6348 C.ar    1  LIG1        0.1666
     15 C           3.3433    0.7262   -4.4376 C.ar    1  LIG1       -0.0158
     16 C           0.2030    1.8061    1.0576 C.ar    1  LIG1       -0.0158
     17 C          -0.5678   -0.8484    0.7424 C.ar    1  LIG1       -0.0087
     18 C           2.0261   -3.4503    1.7043 C.ar    1  LIG1       -0.0505
     19 C           1.1602   -3.7980   -0.5199 C.ar    1  LIG1       -0.0505
     20 C           2.4610    1.7547   -4.6680 C.ar    1  LIG1        0.1662
     21 O           0.9974    3.3869   -4.0688 O.3     1  LIG1       -0.4526
     22 C          -1.1224    1.4379    1.2884 C.ar    1  LIG1       -0.0164
     23 C          -1.5177    0.1153    1.0937 C.ar    1  LIG1        0.1217
     24 C           1.8305   -4.8048    1.9863 C.ar    1  LIG1       -0.0194
     25 C           0.9595   -5.1531   -0.2341 C.ar    1  LIG1       -0.0194
     26 O           2.1241    2.2630   -5.8835 O.3     1  LIG1       -0.4526
     27 C           1.1741    3.2741   -5.4944 C.3     1  LIG1        0.2332
     28 O          -2.7913   -0.3489    1.2808 O.3     1  LIG1       -0.4893
     29 C           1.2785   -5.6585    1.0277 C.ar    1  LIG1        0.1201
     30 C          -3.8535    0.5279    0.8851 C.3     1  LIG1        0.0946
     31 O           1.1100   -6.9539    1.4393 O.3     1  LIG1       -0.4951
     32 C          -4.7849   -0.2678   -0.0251 C.3     1  LIG1       -0.0281
     33 C          -4.5931    0.9860    2.1366 C.3     1  LIG1       -0.0281
     34 C           0.3827   -7.8032    0.5626 C.3     1  LIG1        0.0788
     35 H           4.1937    0.7548   -0.3643 H       1  LIG1        0.0837
     36 H           1.4953    2.5704   -1.5380 H       1  LIG1        0.0659
     37 H           4.2584   -0.4775   -2.9244 H       1  LIG1        0.0623
     38 H           3.8537    0.2233   -5.2498 H       1  LIG1        0.0655
     39 H           0.5170    2.8369    1.1902 H       1  LIG1        0.0655
     40 H          -0.8821   -1.8840    0.6450 H       1  LIG1        0.0661
     41 H           2.4612   -2.7969    2.4565 H       1  LIG1        0.0625
     42 H           0.9303   -3.4122   -1.5104 H       1  LIG1        0.0625
     43 H          -1.8217    2.1945    1.6252 H       1  LIG1        0.0655
     44 H           2.1123   -5.1934    2.9605 H       1  LIG1        0.0654
     45 H           0.5684   -5.7815   -1.0252 H       1  LIG1        0.0654
     46 H           1.5147    4.2412   -5.8816 H       1  LIG1        0.1166
     47 H           0.2047    3.0381   -5.9493 H       1  LIG1        0.1166
     48 H          -3.5005    1.3964    0.3158 H       1  LIG1        0.0727
     49 H          -5.1561   -1.1677    0.4773 H       1  LIG1        0.0265
     50 H          -4.2463   -0.6048   -0.9176 H       1  LIG1        0.0265
     51 H          -5.6403    0.3360   -0.3436 H       1  LIG1        0.0265
     52 H          -4.9711    0.1281    2.7041 H       1  LIG1        0.0265
     53 H          -5.4355    1.6369    1.8837 H       1  LIG1        0.0265
     54 H          -3.9209    1.5317    2.8065 H       1  LIG1        0.0265
     55 H           0.2561   -8.7685    1.0621 H       1  LIG1        0.0660
     56 H           0.9350   -7.9794   -0.3659 H       1  LIG1        0.0660
     57 H          -0.6166   -7.4027    0.3598 H       1  LIG1        0.0660
@<TRIPOS>BOND
     1     1     4    1
     2     1     2    1
     3     1     3    1
     4     2     5    2
     5     2     6    1
     6     3     8   ar
     7     3     7   ar
     8     4     9    1
     9     5    10    1
    10     5    11    1
    11     6    13   ar
    12     6    12   ar
    13     7    14   ar
    14     8    15   ar
    15     9    16   ar
    16     9    10   ar
    17    10    17   ar
    18    11    18   ar
    19    11    19   ar
    20    14    21    1
    21    14    20   ar
    22    15    20   ar
    23    16    22   ar
    24    17    23   ar
    25    18    24   ar
    26    19    25   ar
    27    20    26    1
    28    21    27    1
    29    22    23   ar
    30    23    28    1
    31    24    29   ar
    32    25    29   ar
    33    26    27    1
    34    28    30    1
    35    29    31    1
    36    30    33    1
    37    30    32    1
    38    31    34    1
    39     1    35    1
    40     7    36    1
    41     8    37    1
    42    15    38    1
    43    16    39    1
    44    17    40    1
    45    18    41    1
    46    19    42    1
    47    22    43    1
    48    24    44    1
    49    25    45    1
    50    27    46    1
    51    27    47    1
    52    30    48    1
    53    32    49    1
    54    32    50    1
    55    32    51    1
    56    33    52    1
    57    33    53    1
    58    33    54    1
    59    34    55    1
    60    34    56    1
    61    34    57    1
@<TRIPOS>MOLECULE
01479498K
 57 61 0 0 0
SMALL
GASTEIGER

@<TRIPOS>ATOM
      1 C           3.0263    0.5787   -0.5808 C.3     1  LIG1        0.1526
      2 C           2.8972   -0.9018   -0.3730 C.2     1  LIG1        0.0278
      3 C           2.8173    1.0223   -2.0362 C.ar    1  LIG1        0.0009
      4 O           2.1981    1.3744    0.3104 O.3     1  LIG1       -0.4789
      5 C           1.8283   -1.4840    0.2022 C.2     1  LIG1        0.0016
      6 C           4.1428   -1.6789   -0.7868 C.2     1  LIG1        0.0721
      7 C           1.5882    1.5258   -2.5005 C.ar    1  LIG1       -0.0091
      8 C           3.8887    0.8977   -2.9579 C.ar    1  LIG1       -0.0511
      9 C           0.9974    0.8171    0.6597 C.ar    1  LIG1        0.1298
     10 C           0.7421   -0.5535    0.5791 C.ar    1  LIG1        0.0283
     11 C           1.7944   -2.9380    0.4607 C.ar    1  LIG1       -0.0165
     12 O           5.1653   -1.4416   -0.0823 O.co2   1  LIG1       -0.5448
     13 O           4.0279   -2.3841   -1.8269 O.co2   1  LIG1       -0.5448
     14 C           1.4793    1.8916   -3.8259 C.ar    1  LIG1        0.1666
     15 C           3.7485    1.2735   -4.2996 C.ar    1  LIG1       -0.0158
     16 C           0.0085    1.7030    1.0905 C.ar    1  LIG1       -0.0158
     17 C          -0.5482   -1.0176    0.8840 C.ar    1  LIG1       -0.0087
     18 C           2.1691   -3.4297    1.7158 C.ar    1  LIG1       -0.0505
     19 C           1.3237   -3.8285   -0.5075 C.ar    1  LIG1       -0.0505
     20 C           2.5305    1.7707   -4.7017 C.ar    1  LIG1        0.1662
     21 O           0.3623    2.3971   -4.4177 O.3     1  LIG1       -0.4526
     22 C          -1.2708    1.2295    1.3783 C.ar    1  LIG1       -0.0164
     23 C          -1.5623   -0.1272    1.2395 C.ar    1  LIG1        0.1217
     24 C           2.0502   -4.7925    2.0105 C.ar    1  LIG1       -0.0194
     25 C           1.1982   -5.1876   -0.2092 C.ar    1  LIG1       -0.0194
     26 O           2.2090    2.1833   -5.9578 O.3     1  LIG1       -0.4526
     27 C           0.8274    2.5494   -5.7724 C.3     1  LIG1        0.2332
     28 O          -2.8526   -0.4877    1.5192 O.3     1  LIG1       -0.4893
     29 C           1.5527   -5.6760    1.0509 C.ar    1  LIG1        0.1201
     30 C          -3.4232   -1.5242    0.7050 C.3     1  LIG1        0.0946
     31 O           1.3609   -7.0214    1.2210 O.3     1  LIG1       -0.4951
     32 C          -4.6472   -2.0437    1.4545 C.3     1  LIG1       -0.0281
     33 C          -3.8386   -0.9631   -0.6537 C.3     1  LIG1       -0.0281
     34 C           1.7869   -7.5707    2.4607 C.3     1  LIG1        0.0788
     35 H           4.0424    0.8888   -0.3021 H       1  LIG1        0.0837
     36 H           0.7282    1.6271   -1.8514 H       1  LIG1        0.0659
     37 H           4.8363    0.4721   -2.6258 H       1  LIG1        0.0623
     38 H           4.5692    1.1566   -4.9966 H       1  LIG1        0.0655
     39 H           0.2318    2.7626    1.1668 H       1  LIG1        0.0655
     40 H          -0.7386   -2.0833    0.8461 H       1  LIG1        0.0661
     41 H           2.5608   -2.7462    2.4660 H       1  LIG1        0.0625
     42 H           1.0686   -3.4617   -1.4995 H       1  LIG1        0.0625
     43 H          -2.0467    1.9229    1.6868 H       1  LIG1        0.0655
     44 H           2.3574   -5.1230    2.9955 H       1  LIG1        0.0654
     45 H           0.8341   -5.8685   -0.9724 H       1  LIG1        0.0654
     46 H           0.7014    3.5980   -6.0673 H       1  LIG1        0.1166
     47 H           0.2075    1.9266   -6.4271 H       1  LIG1        0.1166
     48 H          -2.7457   -2.3720    0.5718 H       1  LIG1        0.0727
     49 H          -5.3699   -1.2405    1.6358 H       1  LIG1        0.0265
     50 H          -4.3531   -2.4310    2.4366 H       1  LIG1        0.0265
     51 H          -5.1429   -2.8453    0.8991 H       1  LIG1        0.0265
     52 H          -4.5115   -0.1070   -0.5361 H       1  LIG1        0.0265
     53 H          -4.3419   -1.7244   -1.2578 H       1  LIG1        0.0265
     54 H          -2.9677   -0.6055   -1.2139 H       1  LIG1        0.0265
     55 H           1.5902   -8.6472    2.4341 H       1  LIG1        0.0660
     56 H           1.2156   -7.1516    3.2960 H       1  LIG1        0.0660
     57 H           2.8628   -7.4326    2.6069 H       1  LIG1        0.0660
@<TRIPOS>BOND
     1     1     4    1
     2     1     2    1
     3     1     3    1
     4     2     5    2
     5     2     6    1
     6     3     8   ar
     7     3     7   ar
     8     4     9    1
     9     5    10    1
    10     5    11    1
    11     6    13   ar
    12     6    12   ar
    13     7    14   ar
    14     8    15   ar
    15     9    16   ar
    16     9    10   ar
    17    10    17   ar
    18    11    18   ar
    19    11    19   ar
    20    14    21    1
    21    14    20   ar
    22    15    20   ar
    23    16    22   ar
    24    17    23   ar
    25    18    24   ar
    26    19    25   ar
    27    20    26    1
    28    21    27    1
    29    22    23   ar
    30    23    28    1
    31    24    29   ar
    32    25    29   ar
    33    26    27    1
    34    28    30    1
    35    29    31    1
    36    30    33    1
    37    30    32    1
    38    31    34    1
    39     1    35    1
    40     7    36    1
    41     8    37    1
    42    15    38    1
    43    16    39    1
    44    17    40    1
    45    18    41    1
    46    19    42    1
    47    22    43    1
    48    24    44    1
    49    25    45    1
    50    27    46    1
    51    27    47    1
    52    30    48    1
    53    32    49    1
    54    32    50    1
    55    32    51    1
    56    33    52    1
    57    33    53    1
    58    33    54    1
    59    34    55    1
    60    34    56    1
    61    34    57    1
@<TRIPOS>MOLECULE
01479498K
 57 61 0 0 0
SMALL
GASTEIGER

@<TRIPOS>ATOM
      1 C           3.1924    0.4458   -0.5837 C.3     1  LIG1        0.1526
      2 C           2.9838   -1.0138   -0.3109 C.2     1  LIG1        0.0278
      3 C           2.8986    0.9282   -2.0115 C.ar    1  LIG1        0.0009
      4 O           2.4364    1.2929    0.3253 O.3     1  LIG1       -0.4789
      5 C           1.8547   -1.5094    0.2329 C.2     1  LIG1        0.0016
      6 C           4.1977   -1.8653   -0.6713 C.2     1  LIG1        0.0721
      7 C           2.3580    0.0898   -3.0040 C.ar    1  LIG1       -0.0091
      8 C           3.1609    2.2858   -2.3357 C.ar    1  LIG1       -0.0511
      9 C           1.1610    0.8541    0.5649 C.ar    1  LIG1        0.1298
     10 C           0.8116   -0.4987    0.5173 C.ar    1  LIG1        0.0283
     11 C           1.7191   -2.9573    0.4850 C.ar    1  LIG1       -0.0165
     12 O           5.1831   -1.7300    0.1059 O.co2   1  LIG1       -0.5448
     13 O           4.0891   -2.5318   -1.7389 O.co2   1  LIG1       -0.5448
     14 C           2.0973    0.6246   -4.2487 C.ar    1  LIG1        0.1666
     15 C           2.8881    2.8012   -3.6073 C.ar    1  LIG1       -0.0158
     16 C           0.2191    1.8284    0.8909 C.ar    1  LIG1       -0.0158
     17 C          -0.5250   -0.8491    0.7543 C.ar    1  LIG1       -0.0087
     18 C           1.9785   -3.4807    1.7549 C.ar    1  LIG1       -0.0505
     19 C           1.3211   -3.8194   -0.5413 C.ar    1  LIG1       -0.0505
     20 C           2.3551    1.9426   -4.5417 C.ar    1  LIG1        0.1662
     21 O           1.5675   -0.0470   -5.3075 O.3     1  LIG1       -0.4526
     22 C          -1.1102    1.4672    1.1130 C.ar    1  LIG1       -0.0164
     23 C          -1.4919    0.1296    1.0147 C.ar    1  LIG1        0.1217
     24 C           1.8398   -4.8514    1.9902 C.ar    1  LIG1       -0.0194
     25 C           1.1852   -5.1908   -0.3054 C.ar    1  LIG1       -0.0194
     26 O           2.0246    2.2659   -5.8218 O.3     1  LIG1       -0.4526
     27 C           1.5621    0.9880   -6.3061 C.3     1  LIG1        0.2332
     28 O          -2.7663   -0.3434    1.1732 O.3     1  LIG1       -0.4893
     29 C           1.4545   -5.7136    0.9608 C.ar    1  LIG1        0.1201
     30 C          -3.8534    0.5310    0.8476 C.3     1  LIG1        0.0946
     31 O           1.3671   -7.0352    1.3100 O.3     1  LIG1       -0.4951
     32 C          -3.9399    0.7686   -0.6600 C.3     1  LIG1       -0.0281
     33 C          -5.1255   -0.1645    1.3296 C.3     1  LIG1       -0.0281
     34 C           1.3694   -7.9596    0.2287 C.3     1  LIG1        0.0788
     35 H           4.2425    0.6929   -0.3793 H       1  LIG1        0.0837
     36 H           2.1548   -0.9606   -2.8165 H       1  LIG1        0.0659
     37 H           3.5769    2.9423   -1.5734 H       1  LIG1        0.0623
     38 H           3.0882    3.8379   -3.8470 H       1  LIG1        0.0655
     39 H           0.5225    2.8690    0.9503 H       1  LIG1        0.0655
     40 H          -0.8320   -1.8909    0.7102 H       1  LIG1        0.0661
     41 H           2.3134   -2.8244    2.5543 H       1  LIG1        0.0625
     42 H           1.1500   -3.4235   -1.5398 H       1  LIG1        0.0625
     43 H          -1.8168    2.2500    1.3592 H       1  LIG1        0.0655
     44 H           2.0625   -5.2500    2.9751 H       1  LIG1        0.0654
     45 H           0.8823   -5.8176   -1.1359 H       1  LIG1        0.0654
     46 H           0.5386    1.1072   -6.6799 H       1  LIG1        0.1166
     47 H           2.2031    0.6764   -7.1392 H       1  LIG1        0.1166
     48 H          -3.7778    1.4786    1.3909 H       1  LIG1        0.0727
     49 H          -3.9750   -0.1816   -1.2046 H       1  LIG1        0.0265
     50 H          -3.0629    1.3094   -1.0296 H       1  LIG1        0.0265
     51 H          -4.8280    1.3544   -0.9175 H       1  LIG1        0.0265
     52 H          -5.2496   -1.1387    0.8430 H       1  LIG1        0.0265
     53 H          -6.0129    0.4437    1.1284 H       1  LIG1        0.0265
     54 H          -5.0709   -0.3556    2.4068 H       1  LIG1        0.0265
     55 H           1.4753   -8.9645    0.6490 H       1  LIG1        0.0660
     56 H           2.2171   -7.7912   -0.4449 H       1  LIG1        0.0660
     57 H           0.4195   -7.9262   -0.3150 H       1  LIG1        0.0660
@<TRIPOS>BOND
     1     1     4    1
     2     1     2    1
     3     1     3    1
     4     2     5    2
     5     2     6    1
     6     3     8   ar
     7     3     7   ar
     8     4     9    1
     9     5    10    1
    10     5    11    1
    11     6    13   ar
    12     6    12   ar
    13     7    14   ar
    14     8    15   ar
    15     9    16   ar
    16     9    10   ar
    17    10    17   ar
    18    11    18   ar
    19    11    19   ar
    20    14    21    1
    21    14    20   ar
    22    15    20   ar
    23    16    22   ar
    24    17    23   ar
    25    18    24   ar
    26    19    25   ar
    27    20    26    1
    28    21    27    1
    29    22    23   ar
    30    23    28    1
    31    24    29   ar
    32    25    29   ar
    33    26    27    1
    34    28    30    1
    35    29    31    1
    36    30    33    1
    37    30    32    1
    38    31    34    1
    39     1    35    1
    40     7    36    1
    41     8    37    1
    42    15    38    1
    43    16    39    1
    44    17    40    1
    45    18    41    1
    46    19    42    1
    47    22    43    1
    48    24    44    1
    49    25    45    1
    50    27    46    1
    51    27    47    1
    52    30    48    1
    53    32    49    1
    54    32    50    1
    55    32    51    1
    56    33    52    1
    57    33    53    1
    58    33    54    1
    59    34    55    1
    60    34    56    1
    61    34    57    1
@<TRIPOS>MOLECULE
01479498K
 57 61 0 0 0
SMALL
GASTEIGER

@<TRIPOS>ATOM
      1 C           3.1047    0.4981   -0.5816 C.3     1  LIG1        0.1526
      2 C           2.9425   -0.9763   -0.3232 C.2     1  LIG1        0.0278
      3 C           2.8454    0.9428   -2.0381 C.ar    1  LIG1        0.0009
      4 O           2.3122    1.3006    0.3418 O.3     1  LIG1       -0.4789
      5 C           1.8248   -1.5194    0.1982 C.2     1  LIG1        0.0016
      6 C           4.2086   -1.7931   -0.5554 C.2     1  LIG1        0.0721
      7 C           1.9824    2.0153   -2.3442 C.ar    1  LIG1       -0.0091
      8 C           3.5212    0.3109   -3.1133 C.ar    1  LIG1       -0.0511
      9 C           1.0582    0.8077    0.5978 C.ar    1  LIG1        0.1298
     10 C           0.7490   -0.5504    0.5016 C.ar    1  LIG1        0.0283
     11 C           1.7347   -2.9656    0.4850 C.ar    1  LIG1       -0.0165
     12 O           4.1944   -2.5485   -1.5669 O.co2   1  LIG1       -0.5448
     13 O           5.1482   -1.5455    0.2526 O.co2   1  LIG1       -0.5448
     14 C           1.7969    2.3718   -3.6651 C.ar    1  LIG1        0.1666
     15 C           3.3175    0.6937   -4.4459 C.ar    1  LIG1       -0.0158
     16 C           0.0901    1.7359    0.9840 C.ar    1  LIG1       -0.0158
     17 C          -0.5696   -0.9632    0.7549 C.ar    1  LIG1       -0.0087
     18 C           1.9948   -3.4415    1.7738 C.ar    1  LIG1       -0.0505
     19 C           1.3274   -3.8634   -0.5054 C.ar    1  LIG1       -0.0505
     20 C           2.4430    1.7254   -4.6892 C.ar    1  LIG1        0.1662
     21 O           0.9861    3.3706   -4.1108 O.3     1  LIG1       -0.4526
     22 C          -1.2189    1.3153    1.2115 C.ar    1  LIG1       -0.0164
     23 C          -1.5605   -0.0286    1.0645 C.ar    1  LIG1        0.1217
     24 C           1.8193   -4.7961    2.0794 C.ar    1  LIG1       -0.0194
     25 C           1.1482   -5.2143   -0.1973 C.ar    1  LIG1       -0.0194
     26 O           2.1201    2.2301   -5.9102 O.3     1  LIG1       -0.4526
     27 C           1.1774    3.2528   -5.5340 C.3     1  LIG1        0.2332
     28 O          -2.8756   -0.3279    1.2952 O.3     1  LIG1       -0.4893
     29 C           1.3778   -5.6854    1.0978 C.ar    1  LIG1        0.1201
     30 C          -3.4288   -1.4255    0.5556 C.3     1  LIG1        0.0946
     31 O           1.1376   -7.0220    1.2737 O.3     1  LIG1       -0.4951
     32 C          -3.7879   -2.5335    1.5388 C.3     1  LIG1       -0.0281
     33 C          -4.6770   -0.9090   -0.1540 C.3     1  LIG1       -0.0281
     34 C           1.2838   -7.5230    2.5953 C.3     1  LIG1        0.0788
     35 H           4.1370    0.7971   -0.3591 H       1  LIG1        0.0837
     36 H           1.4604    2.5665   -1.5715 H       1  LIG1        0.0659
     37 H           4.2194   -0.5025   -2.9199 H       1  LIG1        0.0623
     38 H           3.8332    0.1844   -5.2512 H       1  LIG1        0.0655
     39 H           0.3553    2.7834    1.0808 H       1  LIG1        0.0655
     40 H          -0.8053   -2.0206    0.7163 H       1  LIG1        0.0661
     41 H           2.3441   -2.7541    2.5407 H       1  LIG1        0.0625
     42 H           1.1655   -3.5104   -1.5213 H       1  LIG1        0.0625
     43 H          -1.9783    2.0411    1.4885 H       1  LIG1        0.0655
     44 H           2.0444   -5.1172    3.0896 H       1  LIG1        0.0654
     45 H           0.8359   -5.9016   -0.9778 H       1  LIG1        0.0654
     46 H           1.5332    4.2150   -5.9194 H       1  LIG1        0.1166
     47 H           0.2108    3.0268   -5.9995 H       1  LIG1        0.1166
     48 H          -2.7536   -1.8130   -0.2162 H       1  LIG1        0.0727
     49 H          -4.4812   -2.1683    2.3045 H       1  LIG1        0.0265
     50 H          -2.8952   -2.8858    2.0658 H       1  LIG1        0.0265
     51 H          -4.2486   -3.3838    1.0273 H       1  LIG1        0.0265
     52 H          -5.3903   -0.4824    0.5593 H       1  LIG1        0.0265
     53 H          -5.1726   -1.7062   -0.7157 H       1  LIG1        0.0265
     54 H          -4.4100   -0.1074   -0.8509 H       1  LIG1        0.0265
     55 H           1.0093   -8.5826    2.5832 H       1  LIG1        0.0660
     56 H           0.6061   -7.0147    3.2902 H       1  LIG1        0.0660
     57 H           2.3234   -7.4523    2.9322 H       1  LIG1        0.0660
@<TRIPOS>BOND
     1     1     4    1
     2     1     2    1
     3     1     3    1
     4     2     5    2
     5     2     6    1
     6     3     8   ar
     7     3     7   ar
     8     4     9    1
     9     5    10    1
    10     5    11    1
    11     6    13   ar
    12     6    12   ar
    13     7    14   ar
    14     8    15   ar
    15     9    16   ar
    16     9    10   ar
    17    10    17   ar
    18    11    18   ar
    19    11    19   ar
    20    14    21    1
    21    14    20   ar
    22    15    20   ar
    23    16    22   ar
    24    17    23   ar
    25    18    24   ar
    26    19    25   ar
    27    20    26    1
    28    21    27    1
    29    22    23   ar
    30    23    28    1
    31    24    29   ar
    32    25    29   ar
    33    26    27    1
    34    28    30    1
    35    29    31    1
    36    30    33    1
    37    30    32    1
    38    31    34    1
    39     1    35    1
    40     7    36    1
    41     8    37    1
    42    15    38    1
    43    16    39    1
    44    17    40    1
    45    18    41    1
    46    19    42    1
    47    22    43    1
    48    24    44    1
    49    25    45    1
    50    27    46    1
    51    27    47    1
    52    30    48    1
    53    32    49    1
    54    32    50    1
    55    32    51    1
    56    33    52    1
    57    33    53    1
    58    33    54    1
    59    34    55    1
    60    34    56    1
    61    34    57    1
@<TRIPOS>MOLECULE
01479498K
 57 61 0 0 0
SMALL
GASTEIGER

@<TRIPOS>ATOM
      1 C           3.0757    0.5218   -0.6044 C.3     1  LIG1        0.1526
      2 C           2.9256   -0.9468   -0.3486 C.2     1  LIG1        0.0278
      3 C           2.8635    0.9666   -2.0527 C.ar    1  LIG1        0.0009
      4 O           2.2277    1.3596    0.2222 O.3     1  LIG1       -0.4789
      5 C           1.8405   -1.4986    0.2256 C.2     1  LIG1        0.0016
      6 C           4.1622   -1.7461   -0.7434 C.2     1  LIG1        0.0721
      7 C           1.8498    0.4121   -2.8571 C.ar    1  LIG1       -0.0091
      8 C           3.6599    2.0144   -2.5793 C.ar    1  LIG1       -0.0511
      9 C           1.0070    0.8290    0.5381 C.ar    1  LIG1        0.1298
     10 C           0.7528   -0.5456    0.5416 C.ar    1  LIG1        0.0283
     11 C           1.7822   -2.9494    0.4951 C.ar    1  LIG1       -0.0165
     12 O           4.0627   -2.3990   -1.8182 O.co2   1  LIG1       -0.5448
     13 O           5.1506   -1.5946    0.0295 O.co2   1  LIG1       -0.5448
     14 C           1.6758    0.9080   -4.1313 C.ar    1  LIG1        0.1666
     15 C           3.4633    2.4954   -3.8786 C.ar    1  LIG1       -0.0158
     16 C           0.0113    1.7399    0.8924 C.ar    1  LIG1       -0.0158
     17 C          -0.5405   -0.9896    0.8608 C.ar    1  LIG1       -0.0087
     18 C           2.1327   -3.4393    1.7571 C.ar    1  LIG1       -0.0505
     19 C           1.3272   -3.8395   -0.4811 C.ar    1  LIG1       -0.0505
     20 C           2.4612    1.9209   -4.6283 C.ar    1  LIG1        0.1662
     21 O           0.7382    0.4914   -5.0255 O.3     1  LIG1       -0.4526
     22 C          -1.2692    1.2845    1.2035 C.ar    1  LIG1       -0.0164
     23 C          -1.5569   -0.0788    1.1578 C.ar    1  LIG1        0.1217
     24 C           2.0097   -4.8023    2.0493 C.ar    1  LIG1       -0.0194
     25 C           1.1981   -5.1991   -0.1854 C.ar    1  LIG1       -0.0194
     26 O           2.1211    2.2663   -5.9001 O.3     1  LIG1       -0.4526
     27 C           1.0562    1.3269   -6.1532 C.3     1  LIG1        0.2332
     28 O          -2.8453   -0.4244    1.4648 O.3     1  LIG1       -0.4893
     29 C           1.5334   -5.6873    1.0803 C.ar    1  LIG1        0.1201
     30 C          -3.3810   -1.5563    0.7638 C.3     1  LIG1        0.0946
     31 O           1.3471   -7.0342    1.2444 O.3     1  LIG1       -0.4951
     32 C          -3.4688   -2.7425    1.7182 C.3     1  LIG1       -0.0281
     33 C          -4.7757   -1.1618    0.2833 C.3     1  LIG1       -0.0281
     34 C           1.8044   -7.5909    2.4693 C.3     1  LIG1        0.0788
     35 H           4.0950    0.8072   -0.3129 H       1  LIG1        0.0837
     36 H           1.2192   -0.3928   -2.4960 H       1  LIG1        0.0659
     37 H           4.4418    2.4542   -1.9633 H       1  LIG1        0.0623
     38 H           4.0778    3.2915   -4.2797 H       1  LIG1        0.0655
     39 H           0.2343    2.8023    0.9062 H       1  LIG1        0.0655
     40 H          -0.7398   -2.0552    0.8769 H       1  LIG1        0.0661
     41 H           2.5144   -2.7562    2.5123 H       1  LIG1        0.0625
     42 H           1.0933   -3.4757   -1.4789 H       1  LIG1        0.0625
     43 H          -2.0477    1.9954    1.4635 H       1  LIG1        0.0655
     44 H           2.2999   -5.1329    3.0393 H       1  LIG1        0.0654
     45 H           0.8509   -5.8811   -0.9560 H       1  LIG1        0.0654
     46 H           0.1577    1.8880   -6.4351 H       1  LIG1        0.1166
     47 H           1.3454    0.6868   -6.9950 H       1  LIG1        0.1166
     48 H          -2.7909   -1.8196   -0.1229 H       1  LIG1        0.0727
     49 H          -4.0757   -2.4948    2.5960 H       1  LIG1        0.0265
     50 H          -2.4793   -3.0207    2.0935 H       1  LIG1        0.0265
     51 H          -3.9075   -3.6148    1.2240 H       1  LIG1        0.0265
     52 H          -5.4145   -0.8684    1.1239 H       1  LIG1        0.0265
     53 H          -5.2582   -1.9836   -0.2549 H       1  LIG1        0.0265
     54 H          -4.7168   -0.2951   -0.3844 H       1  LIG1        0.0265
     55 H           1.6332   -8.6711    2.4294 H       1  LIG1        0.0660
     56 H           1.2352   -7.1974    3.3181 H       1  LIG1        0.0660
     57 H           2.8793   -7.4294    2.6033 H       1  LIG1        0.0660
@<TRIPOS>BOND
     1     1     4    1
     2     1     2    1
     3     1     3    1
     4     2     5    2
     5     2     6    1
     6     3     8   ar
     7     3     7   ar
     8     4     9    1
     9     5    10    1
    10     5    11    1
    11     6    13   ar
    12     6    12   ar
    13     7    14   ar
    14     8    15   ar
    15     9    16   ar
    16     9    10   ar
    17    10    17   ar
    18    11    18   ar
    19    11    19   ar
    20    14    21    1
    21    14    20   ar
    22    15    20   ar
    23    16    22   ar
    24    17    23   ar
    25    18    24   ar
    26    19    25   ar
    27    20    26    1
    28    21    27    1
    29    22    23   ar
    30    23    28    1
    31    24    29   ar
    32    25    29   ar
    33    26    27    1
    34    28    30    1
    35    29    31    1
    36    30    33    1
    37    30    32    1
    38    31    34    1
    39     1    35    1
    40     7    36    1
    41     8    37    1
    42    15    38    1
    43    16    39    1
    44    17    40    1
    45    18    41    1
    46    19    42    1
    47    22    43    1
    48    24    44    1
    49    25    45    1
    50    27    46    1
    51    27    47    1
    52    30    48    1
    53    32    49    1
    54    32    50    1
    55    32    51    1
    56    33    52    1
    57    33    53    1
    58    33    54    1
    59    34    55    1
    60    34    56    1
    61    34    57    1
@<TRIPOS>MOLECULE
01479498K
 57 61 0 0 0
SMALL
GASTEIGER

@<TRIPOS>ATOM
      1 C           3.1475    0.5455   -0.5705 C.3     1  LIG1        0.1526
      2 C           3.0532   -0.9362   -0.2664 C.2     1  LIG1        0.0278
      3 C           2.7722    0.9717   -2.0122 C.ar    1  LIG1        0.0009
      4 O           2.3777    1.3238    0.3910 O.3     1  LIG1       -0.4789
      5 C           1.9042   -1.4875    0.1901 C.2     1  LIG1        0.0016
      6 C           4.4132   -1.6707   -0.3727 C.2     1  LIG1        0.0721
      7 C           3.1950    0.2277   -3.1315 C.ar    1  LIG1       -0.0091
      8 C           2.0704    2.1853   -2.2544 C.ar    1  LIG1       -0.0511
      9 C           1.1201    0.8309    0.6254 C.ar    1  LIG1        0.1298
     10 C           0.8141   -0.5255    0.4945 C.ar    1  LIG1        0.0283
     11 C           1.7726   -2.9441    0.4210 C.ar    1  LIG1       -0.0165
     12 O           4.6568   -2.5334    0.5124 O.co2   1  LIG1       -0.5448
     13 O           5.1786   -1.2609   -1.2891 O.co2   1  LIG1       -0.5448
     14 C           2.9100    0.6969   -4.3982 C.ar    1  LIG1        0.1666
     15 C           1.7724    2.6288   -3.5492 C.ar    1  LIG1       -0.0158
     16 C           0.1537    1.7507    1.0313 C.ar    1  LIG1       -0.0158
     17 C          -0.5012   -0.9457    0.7629 C.ar    1  LIG1       -0.0087
     18 C           1.8692   -3.4688    1.7142 C.ar    1  LIG1       -0.0505
     19 C           1.4663   -3.8002   -0.6425 C.ar    1  LIG1       -0.0505
     20 C           2.2156    1.8633   -4.6011 C.ar    1  LIG1        0.1662
     21 O           3.2770    0.1042   -5.5672 O.3     1  LIG1       -0.4526
     22 C          -1.1458    1.3194    1.2870 C.ar    1  LIG1       -0.0164
     23 C          -1.4775   -0.0307    1.1682 C.ar    1  LIG1        0.1217
     24 C           1.6687   -4.8332    1.9375 C.ar    1  LIG1       -0.0194
     25 C           1.2629   -5.1663   -0.4175 C.ar    1  LIG1       -0.0194
     26 O           2.0527    2.1528   -5.9214 O.3     1  LIG1       -0.4526
     27 C           2.7786    1.0583   -6.5210 C.3     1  LIG1        0.2332
     28 O          -2.7794   -0.3249    1.4711 O.3     1  LIG1       -0.4893
     29 C           1.3752   -5.6886    0.8740 C.ar    1  LIG1        0.1201
     30 C          -3.1082   -1.6666    1.8501 C.3     1  LIG1        0.0946
     31 O           1.1989   -7.0035    1.2170 O.3     1  LIG1       -0.4951
     32 C          -2.6243   -1.9569    3.2697 C.3     1  LIG1       -0.0281
     33 C          -4.6317   -1.7689    1.7943 C.3     1  LIG1       -0.0281
     34 C           1.3517   -7.9400    0.1571 C.3     1  LIG1        0.0788
     35 H           4.1760    0.8908   -0.4110 H       1  LIG1        0.0837
     36 H           3.7633   -0.6889   -3.0258 H       1  LIG1        0.0659
     37 H           1.7540    2.8057   -1.4182 H       1  LIG1        0.0623
     38 H           1.2297    3.5494   -3.7137 H       1  LIG1        0.0655
     39 H           0.4159    2.7976    1.1398 H       1  LIG1        0.0655
     40 H          -0.7357   -1.9983    0.6576 H       1  LIG1        0.0661
     41 H           2.1364   -2.8169    2.5413 H       1  LIG1        0.0625
     42 H           1.3866   -3.4003   -1.6497 H       1  LIG1        0.0625
     43 H          -1.9001    2.0361    1.5978 H       1  LIG1        0.0655
     44 H           1.7738   -5.2306    2.9418 H       1  LIG1        0.0654
     45 H           1.0203   -5.7911   -1.2676 H       1  LIG1        0.0654
     46 H           2.1139    0.5402   -7.2201 H       1  LIG1        0.1166
     47 H           3.6250    1.4690   -7.0834 H       1  LIG1        0.1166
     48 H          -2.7112   -2.3975    1.1388 H       1  LIG1        0.0727
     49 H          -2.9993   -1.2029    3.9716 H       1  LIG1        0.0265
     50 H          -1.5323   -1.9262    3.3315 H       1  LIG1        0.0265
     51 H          -2.9551   -2.9446    3.6071 H       1  LIG1        0.0265
     52 H          -5.1012   -1.0327    2.4563 H       1  LIG1        0.0265
     53 H          -4.9753   -2.7682    2.0802 H       1  LIG1        0.0265
     54 H          -4.9903   -1.5544    0.7814 H       1  LIG1        0.0265
     55 H           1.3990   -8.9390    0.6004 H       1  LIG1        0.0660
     56 H           2.2831   -7.7780   -0.3960 H       1  LIG1        0.0660
     57 H           0.4856   -7.9139   -0.5114 H       1  LIG1        0.0660
@<TRIPOS>BOND
     1     1     4    1
     2     1     2    1
     3     1     3    1
     4     2     5    2
     5     2     6    1
     6     3     8   ar
     7     3     7   ar
     8     4     9    1
     9     5    10    1
    10     5    11    1
    11     6    13   ar
    12     6    12   ar
    13     7    14   ar
    14     8    15   ar
    15     9    16   ar
    16     9    10   ar
    17    10    17   ar
    18    11    18   ar
    19    11    19   ar
    20    14    21    1
    21    14    20   ar
    22    15    20   ar
    23    16    22   ar
    24    17    23   ar
    25    18    24   ar
    26    19    25   ar
    27    20    26    1
    28    21    27    1
    29    22    23   ar
    30    23    28    1
    31    24    29   ar
    32    25    29   ar
    33    26    27    1
    34    28    30    1
    35    29    31    1
    36    30    33    1
    37    30    32    1
    38    31    34    1
    39     1    35    1
    40     7    36    1
    41     8    37    1
    42    15    38    1
    43    16    39    1
    44    17    40    1
    45    18    41    1
    46    19    42    1
    47    22    43    1
    48    24    44    1
    49    25    45    1
    50    27    46    1
    51    27    47    1
    52    30    48    1
    53    32    49    1
    54    32    50    1
    55    32    51    1
    56    33    52    1
    57    33    53    1
    58    33    54    1
    59    34    55    1
    60    34    56    1
    61    34    57    1
@<TRIPOS>MOLECULE
01479498K
 57 61 0 0 0
SMALL
GASTEIGER

@<TRIPOS>ATOM
      1 C           3.0718    0.5731   -0.5690 C.3     1  LIG1        0.1526
      2 C           2.9487   -0.9091   -0.3746 C.2     1  LIG1        0.0278
      3 C           2.8471    1.0255   -2.0192 C.ar    1  LIG1        0.0009
      4 O           2.2456    1.3520    0.3375 O.3     1  LIG1       -0.4789
      5 C           1.8754   -1.5016    0.1821 C.2     1  LIG1        0.0016
      6 C           4.2048   -1.6744   -0.7817 C.2     1  LIG1        0.0721
      7 C           1.6125    1.5311   -2.4683 C.ar    1  LIG1       -0.0091
      8 C           3.9062    0.9020   -2.9550 C.ar    1  LIG1       -0.0511
      9 C           1.0428    0.7897    0.6708 C.ar    1  LIG1        0.1298
     10 C           0.7842   -0.5791    0.5671 C.ar    1  LIG1        0.0283
     11 C           1.8538   -2.9628    0.4011 C.ar    1  LIG1       -0.0165
     12 O           5.2143   -1.4487   -0.0545 O.co2   1  LIG1       -0.5448
     13 O           4.1101   -2.3623   -1.8356 O.co2   1  LIG1       -0.5448
     14 C           1.4871    1.8970   -3.7910 C.ar    1  LIG1        0.1666
     15 C           3.7502    1.2791   -4.2943 C.ar    1  LIG1       -0.0158
     16 C           0.0528    1.6711    1.0998 C.ar    1  LIG1       -0.0158
     17 C          -0.5109   -1.0470    0.8568 C.ar    1  LIG1       -0.0087
     18 C           1.3461   -3.8210   -0.5791 C.ar    1  LIG1       -0.0505
     19 C           2.3143   -3.4977    1.6096 C.ar    1  LIG1       -0.0505
     20 C           2.5262    1.7763   -4.6812 C.ar    1  LIG1        0.1662
     21 O           0.3625    2.4015   -4.3691 O.3     1  LIG1       -0.4526
     22 C          -1.2267    1.1926    1.3740 C.ar    1  LIG1       -0.0164
     23 C          -1.5245   -0.1667    1.2396 C.ar    1  LIG1        0.1217
     24 C           1.2888   -5.1972   -0.3472 C.ar    1  LIG1       -0.0194
     25 C           2.2678   -4.8770    1.8366 C.ar    1  LIG1       -0.0194
     26 O           2.1886    2.1883   -5.9333 O.3     1  LIG1       -0.4526
     27 C           0.8085    2.5521   -5.7299 C.3     1  LIG1        0.2332
     28 O          -2.8218   -0.4777    1.5284 O.3     1  LIG1       -0.4893
     29 C           1.7654   -5.7289    0.8514 C.ar    1  LIG1        0.1201
     30 C          -3.3249   -1.7956    1.3015 C.3     1  LIG1        0.0946
     31 O           1.6684   -7.0896    0.9800 O.3     1  LIG1       -0.4951
     32 C          -4.0555   -2.2141    2.5724 C.3     1  LIG1       -0.0281
     33 C          -4.2858   -1.7462    0.1183 C.3     1  LIG1       -0.0281
     34 C           2.7521   -7.6848    1.6864 C.3     1  LIG1        0.0788
     35 H           4.0883    0.8861   -0.2969 H       1  LIG1        0.0837
     36 H           0.7597    1.6316   -1.8100 H       1  LIG1        0.0659
     37 H           4.8580    0.4752   -2.6348 H       1  LIG1        0.0623
     38 H           4.5616    1.1620   -5.0018 H       1  LIG1        0.0655
     39 H           0.2734    2.7305    1.1852 H       1  LIG1        0.0655
     40 H          -0.6890   -2.1103    0.7671 H       1  LIG1        0.0661
     41 H           1.0219   -3.4170   -1.5352 H       1  LIG1        0.0625
     42 H           2.7265   -2.8376    2.3693 H       1  LIG1        0.0625
     43 H          -2.0032    1.8871    1.6816 H       1  LIG1        0.0655
     44 H           0.9051   -5.8554   -1.1204 H       1  LIG1        0.0654
     45 H           2.6279   -5.2552    2.7862 H       1  LIG1        0.0654
     46 H           0.6768    3.5995   -6.0255 H       1  LIG1        0.1166
     47 H           0.1813    1.9264   -6.3754 H       1  LIG1        0.1166
     48 H          -2.5573   -2.5445    1.1020 H       1  LIG1        0.0727
     49 H          -4.8495   -1.5025    2.8244 H       1  LIG1        0.0265
     50 H          -3.3606   -2.2238    3.4198 H       1  LIG1        0.0265
     51 H          -4.4941   -3.2112    2.4704 H       1  LIG1        0.0265
     52 H          -5.0833   -1.0143    0.2871 H       1  LIG1        0.0265
     53 H          -4.7422   -2.7243   -0.0637 H       1  LIG1        0.0265
     54 H          -3.7591   -1.4348   -0.7906 H       1  LIG1        0.0265
     55 H           2.7268   -8.7609    1.4880 H       1  LIG1        0.0660
     56 H           2.6375   -7.5444    2.7658 H       1  LIG1        0.0660
     57 H           3.7204   -7.3051    1.3414 H       1  LIG1        0.0660
@<TRIPOS>BOND
     1     1     4    1
     2     1     2    1
     3     1     3    1
     4     2     5    2
     5     2     6    1
     6     3     8   ar
     7     3     7   ar
     8     4     9    1
     9     5    10    1
    10     5    11    1
    11     6    13   ar
    12     6    12   ar
    13     7    14   ar
    14     8    15   ar
    15     9    16   ar
    16     9    10   ar
    17    10    17   ar
    18    11    18   ar
    19    11    19   ar
    20    14    21    1
    21    14    20   ar
    22    15    20   ar
    23    16    22   ar
    24    17    23   ar
    25    18    24   ar
    26    19    25   ar
    27    20    26    1
    28    21    27    1
    29    22    23   ar
    30    23    28    1
    31    24    29   ar
    32    25    29   ar
    33    26    27    1
    34    28    30    1
    35    29    31    1
    36    30    33    1
    37    30    32    1
    38    31    34    1
    39     1    35    1
    40     7    36    1
    41     8    37    1
    42    15    38    1
    43    16    39    1
    44    17    40    1
    45    18    41    1
    46    19    42    1
    47    22    43    1
    48    24    44    1
    49    25    45    1
    50    27    46    1
    51    27    47    1
    52    30    48    1
    53    32    49    1
    54    32    50    1
    55    32    51    1
    56    33    52    1
    57    33    53    1
    58    33    54    1
    59    34    55    1
    60    34    56    1
    61    34    57    1
@<TRIPOS>MOLECULE
01479498K
 57 61 0 0 0
SMALL
GASTEIGER

@<TRIPOS>ATOM
      1 C           3.1004    0.5190   -0.5917 C.3     1  LIG1        0.1526
      2 C           2.9348   -0.9579   -0.3563 C.2     1  LIG1        0.0278
      3 C           2.8031    0.9933   -2.0319 C.ar    1  LIG1        0.0009
      4 O           2.3373    1.3075    0.3672 O.3     1  LIG1       -0.4789
      5 C           1.8253   -1.5035    0.1816 C.2     1  LIG1        0.0016
      6 C           4.1904   -1.7770   -0.6463 C.2     1  LIG1        0.0721
      7 C           3.4238    0.3711   -3.1339 C.ar    1  LIG1       -0.0091
      8 C           1.9498    2.1002   -2.2889 C.ar    1  LIG1       -0.0511
      9 C           1.0852    0.8199    0.6411 C.ar    1  LIG1        0.1298
     10 C           0.7651   -0.5353    0.5328 C.ar    1  LIG1        0.0283
     11 C           1.7381   -2.9576    0.4319 C.ar    1  LIG1       -0.0165
     12 O           5.1705   -1.5174    0.1085 O.co2   1  LIG1       -0.5448
     13 O           4.1250   -2.5475   -1.6448 O.co2   1  LIG1       -0.5448
     14 C           3.1431    0.8306   -4.4060 C.ar    1  LIG1        0.1666
     15 C           1.6801    2.5447   -3.5893 C.ar    1  LIG1       -0.0158
     16 C           0.1302    1.7498    1.0492 C.ar    1  LIG1       -0.0158
     17 C          -0.5487   -0.9444    0.8188 C.ar    1  LIG1       -0.0087
     18 C           2.0402   -3.4789    1.6932 C.ar    1  LIG1       -0.0505
     19 C           1.3152   -3.8231   -0.5825 C.ar    1  LIG1       -0.0505
     20 C           2.2904    1.8843   -4.6266 C.ar    1  LIG1        0.1662
     21 O           3.6551    0.3309   -5.5636 O.3     1  LIG1       -0.4526
     22 C          -1.1722    1.3321    1.3156 C.ar    1  LIG1       -0.0164
     23 C          -1.5163   -0.0169    1.2127 C.ar    1  LIG1        0.1217
     24 C           1.9132   -4.8499    1.9341 C.ar    1  LIG1       -0.0194
     25 C           1.1902   -5.1947   -0.3403 C.ar    1  LIG1       -0.0194
     26 O           2.1498    2.1763   -5.9476 O.3     1  LIG1       -0.4526
     27 C           3.0019    1.1699   -6.5320 C.3     1  LIG1        0.2332
     28 O          -2.8222   -0.2950    1.5091 O.3     1  LIG1       -0.4893
     29 C           1.4964   -5.7139    0.9186 C.ar    1  LIG1        0.1201
     30 C          -3.1613   -1.6302    1.9034 C.3     1  LIG1        0.0946
     31 O           1.4131   -7.0340    1.2745 O.3     1  LIG1       -0.4951
     32 C          -2.6767   -1.9050    3.3260 C.3     1  LIG1       -0.0281
     33 C          -4.6854   -1.7228    1.8495 C.3     1  LIG1       -0.0281
     34 C           1.4067   -7.9629    0.1972 C.3     1  LIG1        0.0788
     35 H           4.1402    0.8093   -0.3919 H       1  LIG1        0.0837
     36 H           4.1094   -0.4611   -3.0090 H       1  LIG1        0.0659
     37 H           1.4814    2.6328   -1.4655 H       1  LIG1        0.0623
     38 H           1.0159    3.3813   -3.7664 H       1  LIG1        0.0655
     39 H           0.3996    2.7972    1.1396 H       1  LIG1        0.0655
     40 H          -0.7915   -1.9957    0.7180 H       1  LIG1        0.0661
     41 H           2.3961   -2.8204    2.4810 H       1  LIG1        0.0625
     42 H           1.1114   -3.4267   -1.5751 H       1  LIG1        0.0625
     43 H          -1.9210    2.0593    1.6159 H       1  LIG1        0.0655
     44 H           2.1675   -5.2468    2.9122 H       1  LIG1        0.0654
     45 H           0.8633   -5.8239   -1.1600 H       1  LIG1        0.0654
     46 H           2.3950    0.5384   -7.1920 H       1  LIG1        0.1166
     47 H           3.7676    1.6704   -7.1352 H       1  LIG1        0.1166
     48 H          -2.7700   -2.3728    1.2001 H       1  LIG1        0.0727
     49 H          -3.0335   -1.1312    4.0146 H       1  LIG1        0.0265
     50 H          -1.5837   -1.8927    3.3811 H       1  LIG1        0.0265
     51 H          -3.0223   -2.8800    3.6816 H       1  LIG1        0.0265
     52 H          -5.1491   -0.9681    2.4945 H       1  LIG1        0.0265
     53 H          -5.0359   -2.7128    2.1572 H       1  LIG1        0.0265
     54 H          -5.0418   -1.5287    0.8319 H       1  LIG1        0.0265
     55 H           1.5168   -8.9659    0.6209 H       1  LIG1        0.0660
     56 H           2.2483   -7.7958   -0.4839 H       1  LIG1        0.0660
     57 H           0.4524   -7.9332   -0.3385 H       1  LIG1        0.0660
@<TRIPOS>BOND
     1     1     4    1
     2     1     2    1
     3     1     3    1
     4     2     5    2
     5     2     6    1
     6     3     8   ar
     7     3     7   ar
     8     4     9    1
     9     5    10    1
    10     5    11    1
    11     6    13   ar
    12     6    12   ar
    13     7    14   ar
    14     8    15   ar
    15     9    16   ar
    16     9    10   ar
    17    10    17   ar
    18    11    18   ar
    19    11    19   ar
    20    14    21    1
    21    14    20   ar
    22    15    20   ar
    23    16    22   ar
    24    17    23   ar
    25    18    24   ar
    26    19    25   ar
    27    20    26    1
    28    21    27    1
    29    22    23   ar
    30    23    28    1
    31    24    29   ar
    32    25    29   ar
    33    26    27    1
    34    28    30    1
    35    29    31    1
    36    30    33    1
    37    30    32    1
    38    31    34    1
    39     1    35    1
    40     7    36    1
    41     8    37    1
    42    15    38    1
    43    16    39    1
    44    17    40    1
    45    18    41    1
    46    19    42    1
    47    22    43    1
    48    24    44    1
    49    25    45    1
    50    27    46    1
    51    27    47    1
    52    30    48    1
    53    32    49    1
    54    32    50    1
    55    32    51    1
    56    33    52    1
    57    33    53    1
    58    33    54    1
    59    34    55    1
    60    34    56    1
    61    34    57    1
@<TRIPOS>MOLECULE
01479498K
 57 61 0 0 0
SMALL
GASTEIGER

@<TRIPOS>ATOM
      1 C           3.0328    0.5635   -0.5737 C.3     1  LIG1        0.1526
      2 C           2.8753   -0.9156   -0.3693 C.2     1  LIG1        0.0278
      3 C           2.8395    1.0117   -2.0292 C.ar    1  LIG1        0.0009
      4 O           2.2145    1.3775    0.3090 O.3     1  LIG1       -0.4789
      5 C           1.8060   -1.4784    0.2232 C.2     1  LIG1        0.0016
      6 C           4.0929   -1.7153   -0.8257 C.2     1  LIG1        0.0721
      7 C           1.6101    1.5014   -2.5081 C.ar    1  LIG1       -0.0091
      8 C           3.9249    0.9031   -2.9363 C.ar    1  LIG1       -0.0511
      9 C           1.0123    0.8374    0.6754 C.ar    1  LIG1        0.1298
     10 C           0.7411   -0.5302    0.6187 C.ar    1  LIG1        0.0283
     11 C           1.7385   -2.9360    0.4601 C.ar    1  LIG1       -0.0165
     12 O           5.1488   -1.4836   -0.1700 O.co2   1  LIG1       -0.5448
     13 O           3.9220   -2.4308   -1.8514 O.co2   1  LIG1       -0.5448
     14 C           1.5162    1.8731   -3.8329 C.ar    1  LIG1        0.1666
     15 C           3.7998    1.2837   -4.2778 C.ar    1  LIG1       -0.0158
     16 C           0.0353    1.7398    1.0955 C.ar    1  LIG1       -0.0158
     17 C          -0.5510   -0.9761    0.9491 C.ar    1  LIG1       -0.0087
     18 C           2.0856   -3.4594    1.7088 C.ar    1  LIG1       -0.0505
     19 C           1.2522   -3.7953   -0.5301 C.ar    1  LIG1       -0.0505
     20 C           2.5818    1.7688   -4.6942 C.ar    1  LIG1        0.1662
     21 O           0.4026    2.3688   -4.4389 O.3     1  LIG1       -0.4526
     22 C          -1.2462    1.2840    1.4015 C.ar    1  LIG1       -0.0164
     23 C          -1.5548   -0.0740    1.3076 C.ar    1  LIG1        0.1217
     24 C           1.9096   -4.8203    1.9723 C.ar    1  LIG1       -0.0194
     25 C           1.0709   -5.1564   -0.2626 C.ar    1  LIG1       -0.0194
     26 O           2.2735    2.1845   -5.9528 O.3     1  LIG1       -0.4526
     27 C           0.8852    2.5339   -5.7856 C.3     1  LIG1        0.2332
     28 O          -2.8558   -0.3848    1.5948 O.3     1  LIG1       -0.4893
     29 C           1.3776   -5.6696    0.9989 C.ar    1  LIG1        0.1201
     30 C          -3.3247   -1.7069    1.3048 C.3     1  LIG1        0.0946
     31 O           1.2144   -6.9705    1.3950 O.3     1  LIG1       -0.4951
     32 C          -3.1991   -2.5710    2.5550 C.3     1  LIG1       -0.0281
     33 C          -4.7902   -1.5803    0.8951 C.3     1  LIG1       -0.0281
     34 C           0.4286   -7.7906    0.5405 C.3     1  LIG1        0.0788
     35 H           4.0523    0.8530   -0.2876 H       1  LIG1        0.0837
     36 H           0.7406    1.5867   -1.8697 H       1  LIG1        0.0659
     37 H           4.8728    0.4869   -2.5916 H       1  LIG1        0.0623
     38 H           4.6313    1.1796   -4.9640 H       1  LIG1        0.0655
     39 H           0.2672    2.7993    1.1469 H       1  LIG1        0.0655
     40 H          -0.7498   -2.0410    0.9104 H       1  LIG1        0.0661
     41 H           2.4942   -2.8067    2.4761 H       1  LIG1        0.0625
     42 H           1.0300   -3.4008   -1.5195 H       1  LIG1        0.0625
     43 H          -2.0135    1.9937    1.6969 H       1  LIG1        0.0655
     44 H           2.1841   -5.2161    2.9454 H       1  LIG1        0.0654
     45 H           0.7049   -5.7834   -1.0671 H       1  LIG1        0.0654
     46 H           0.7514    3.5820   -6.0773 H       1  LIG1        0.1166
     47 H           0.2821    1.9070   -6.4528 H       1  LIG1        0.1166
     48 H          -2.7988   -2.1606    0.4574 H       1  LIG1        0.0727
     49 H          -3.7429   -2.1229    3.3943 H       1  LIG1        0.0265
     50 H          -2.1547   -2.6566    2.8715 H       1  LIG1        0.0265
     51 H          -3.5908   -3.5779    2.3821 H       1  LIG1        0.0265
     52 H          -5.3798   -1.0897    1.6771 H       1  LIG1        0.0265
     53 H          -5.2296   -2.5600    0.6835 H       1  LIG1        0.0265
     54 H          -4.8794   -0.9595   -0.0033 H       1  LIG1        0.0265
     55 H           0.2807   -8.7511    1.0436 H       1  LIG1        0.0660
     56 H           0.9457   -7.9858   -0.4041 H       1  LIG1        0.0660
     57 H          -0.5609   -7.3530    0.3676 H       1  LIG1        0.0660
@<TRIPOS>BOND
     1     1     4    1
     2     1     2    1
     3     1     3    1
     4     2     5    2
     5     2     6    1
     6     3     8   ar
     7     3     7   ar
     8     4     9    1
     9     5    10    1
    10     5    11    1
    11     6    13   ar
    12     6    12   ar
    13     7    14   ar
    14     8    15   ar
    15     9    16   ar
    16     9    10   ar
    17    10    17   ar
    18    11    18   ar
    19    11    19   ar
    20    14    21    1
    21    14    20   ar
    22    15    20   ar
    23    16    22   ar
    24    17    23   ar
    25    18    24   ar
    26    19    25   ar
    27    20    26    1
    28    21    27    1
    29    22    23   ar
    30    23    28    1
    31    24    29   ar
    32    25    29   ar
    33    26    27    1
    34    28    30    1
    35    29    31    1
    36    30    33    1
    37    30    32    1
    38    31    34    1
    39     1    35    1
    40     7    36    1
    41     8    37    1
    42    15    38    1
    43    16    39    1
    44    17    40    1
    45    18    41    1
    46    19    42    1
    47    22    43    1
    48    24    44    1
    49    25    45    1
    50    27    46    1
    51    27    47    1
    52    30    48    1
    53    32    49    1
    54    32    50    1
    55    32    51    1
    56    33    52    1
    57    33    53    1
    58    33    54    1
    59    34    55    1
    60    34    56    1
    61    34    57    1
@<TRIPOS>MOLECULE
01479498K
 57 61 0 0 0
SMALL
GASTEIGER

@<TRIPOS>ATOM
      1 C           3.0898    0.5042   -0.5939 C.3     1  LIG1        0.1526
      2 C           2.9303   -0.9660   -0.3487 C.2     1  LIG1        0.0278
      3 C           2.8736    0.9591   -2.0386 C.ar    1  LIG1        0.0009
      4 O           2.2514    1.3436    0.2414 O.3     1  LIG1       -0.4789
      5 C           1.8473   -1.5126    0.2335 C.2     1  LIG1        0.0016
      6 C           4.1474   -1.7737   -0.7872 C.2     1  LIG1        0.0721
      7 C           1.8571    0.4104   -2.8434 C.ar    1  LIG1       -0.0091
      8 C           3.6706    2.0081   -2.5617 C.ar    1  LIG1       -0.0511
      9 C           1.0291    0.8197    0.5617 C.ar    1  LIG1        0.1298
     10 C           0.7679   -0.5530    0.5633 C.ar    1  LIG1        0.0283
     11 C           1.7637   -2.9669    0.4799 C.ar    1  LIG1       -0.0165
     12 O           3.9910   -2.4568   -1.8367 O.co2   1  LIG1       -0.5448
     13 O           5.1768   -1.5964   -0.0760 O.co2   1  LIG1       -0.5448
     14 C           1.6825    0.9111   -4.1155 C.ar    1  LIG1        0.1666
     15 C           3.4729    2.4949   -3.8586 C.ar    1  LIG1       -0.0158
     16 C           0.0382    1.7343    0.9196 C.ar    1  LIG1       -0.0158
     17 C          -0.5267   -0.9908    0.8856 C.ar    1  LIG1       -0.0087
     18 C           2.1017   -3.4880    1.7314 C.ar    1  LIG1       -0.0505
     19 C           1.2724   -3.8248   -0.5091 C.ar    1  LIG1       -0.0505
     20 C           2.4691    1.9245   -4.6096 C.ar    1  LIG1        0.1662
     21 O           0.7443    0.4985   -5.0105 O.3     1  LIG1       -0.4526
     22 C          -1.2447    1.2850    1.2309 C.ar    1  LIG1       -0.0164
     23 C          -1.5391   -0.0765    1.1832 C.ar    1  LIG1        0.1217
     24 C           1.9113   -4.8461    1.9988 C.ar    1  LIG1       -0.0194
     25 C           1.0767   -5.1828   -0.2376 C.ar    1  LIG1       -0.0194
     26 O           2.1291    2.2743   -5.8804 O.3     1  LIG1       -0.4526
     27 C           1.0645    1.3358   -6.1367 C.3     1  LIG1        0.2332
     28 O          -2.8297   -0.4185    1.4861 O.3     1  LIG1       -0.4893
     29 C           1.3750   -5.6943    1.0264 C.ar    1  LIG1        0.1201
     30 C          -3.3672   -1.5460    0.7789 C.3     1  LIG1        0.0946
     31 O           1.1989   -6.9923    1.4266 O.3     1  LIG1       -0.4951
     32 C          -3.4634   -2.7361    1.7278 C.3     1  LIG1       -0.0281
     33 C          -4.7583   -1.1452    0.2934 C.3     1  LIG1       -0.0281
     34 C           0.4218   -7.8130    0.5645 C.3     1  LIG1        0.0788
     35 H           4.1120    0.7808   -0.3051 H       1  LIG1        0.0837
     36 H           1.2258   -0.3952   -2.4849 H       1  LIG1        0.0659
     37 H           4.4547    2.4434   -1.9448 H       1  LIG1        0.0623
     38 H           4.0886    3.2917   -4.2574 H       1  LIG1        0.0655
     39 H           0.2663    2.7956    0.9344 H       1  LIG1        0.0655
     40 H          -0.7313   -2.0555    0.9020 H       1  LIG1        0.0661
     41 H           2.5144   -2.8363    2.4972 H       1  LIG1        0.0625
     42 H           1.0566   -3.4327   -1.5009 H       1  LIG1        0.0625
     43 H          -2.0195    1.9992    1.4916 H       1  LIG1        0.0655
     44 H           2.1789   -5.2410    2.9745 H       1  LIG1        0.0654
     45 H           0.7062   -5.8088   -1.0407 H       1  LIG1        0.0654
     46 H           0.1666    1.8973   -6.4194 H       1  LIG1        0.1166
     47 H           1.3549    0.6966   -6.9789 H       1  LIG1        0.1166
     48 H          -2.7747   -1.8084   -0.1065 H       1  LIG1        0.0727
     49 H          -4.0738   -2.4903    2.6037 H       1  LIG1        0.0265
     50 H          -2.4767   -3.0193    2.1067 H       1  LIG1        0.0265
     51 H          -3.9025   -3.6048    1.2276 H       1  LIG1        0.0265
     52 H          -5.4000   -0.8526    1.1320 H       1  LIG1        0.0265
     53 H          -5.2410   -1.9636   -0.2498 H       1  LIG1        0.0265
     54 H          -4.6935   -0.2766   -0.3712 H       1  LIG1        0.0265
     55 H           0.2680   -8.7730    1.0669 H       1  LIG1        0.0660
     56 H           0.9489   -8.0096   -0.3746 H       1  LIG1        0.0660
     57 H          -0.5656   -7.3748    0.3805 H       1  LIG1        0.0660
@<TRIPOS>BOND
     1     1     4    1
     2     1     2    1
     3     1     3    1
     4     2     5    2
     5     2     6    1
     6     3     8   ar
     7     3     7   ar
     8     4     9    1
     9     5    10    1
    10     5    11    1
    11     6    13   ar
    12     6    12   ar
    13     7    14   ar
    14     8    15   ar
    15     9    16   ar
    16     9    10   ar
    17    10    17   ar
    18    11    18   ar
    19    11    19   ar
    20    14    21    1
    21    14    20   ar
    22    15    20   ar
    23    16    22   ar
    24    17    23   ar
    25    18    24   ar
    26    19    25   ar
    27    20    26    1
    28    21    27    1
    29    22    23   ar
    30    23    28    1
    31    24    29   ar
    32    25    29   ar
    33    26    27    1
    34    28    30    1
    35    29    31    1
    36    30    33    1
    37    30    32    1
    38    31    34    1
    39     1    35    1
    40     7    36    1
    41     8    37    1
    42    15    38    1
    43    16    39    1
    44    17    40    1
    45    18    41    1
    46    19    42    1
    47    22    43    1
    48    24    44    1
    49    25    45    1
    50    27    46    1
    51    27    47    1
    52    30    48    1
    53    32    49    1
    54    32    50    1
    55    32    51    1
    56    33    52    1
    57    33    53    1
    58    33    54    1
    59    34    55    1
    60    34    56    1
    61    34    57    1
