@<TRIPOS>MOLECULE
108002
 64 68 0 0 0
SMALL
GASTEIGER

@<TRIPOS>ATOM
      1 O          -0.0064    2.7369    2.0810 O.co2   1  LIG1       -0.5495
      2 O          -1.2767    3.5612    0.3911 O.co2   1  LIG1       -0.5495
      3 O           1.1378   -4.2480    2.1371 O.3     1  LIG1       -0.4920
      4 O           0.0081   -0.9431   -2.0434 O.3     1  LIG1       -0.4858
      5 O          -5.4176   -1.3068   -1.7315 O.3     1  LIG1       -0.4526
      6 O          -6.9278    0.4827   -1.1539 O.3     1  LIG1       -0.4526
      7 O           4.0637    0.8596   -4.0382 O.3     1  LIG1       -0.4950
      8 O           0.0547   -1.7967   -5.1538 O.co2   1  LIG1       -0.5463
      9 O          -1.6108   -2.8338   -3.9937 O.co2   1  LIG1       -0.5463
     10 C          -0.7522    1.2525    0.3655 C.3     1  LIG1        0.0203
     11 C           0.5829    0.4863    0.4801 C.3     1  LIG1        0.0218
     12 C          -1.7973    0.4908    1.2184 C.3     1  LIG1        0.0184
     13 C           0.1667   -0.8733    0.9868 C.ar    1  LIG1       -0.0320
     14 C          -1.1585   -0.8658    1.4208 C.ar    1  LIG1       -0.0353
     15 C          -3.1819    0.4827    0.5815 C.ar    1  LIG1       -0.0356
     16 C           1.4374    0.5145   -0.7796 C.ar    1  LIG1        0.0026
     17 C          -0.6554    2.6418    0.9981 C.2     1  LIG1        0.0466
     18 C           0.9766   -1.9908    1.1667 C.ar    1  LIG1       -0.0159
     19 C          -1.7041   -1.9863    2.0320 C.ar    1  LIG1       -0.0542
     20 C           0.4494   -3.1106    1.8105 C.ar    1  LIG1        0.1208
     21 C           1.1300   -0.1548   -1.9769 C.ar    1  LIG1        0.1283
     22 C          -3.5873   -0.5022   -0.3363 C.ar    1  LIG1       -0.0124
     23 C          -4.0771    1.5346    0.8992 C.ar    1  LIG1       -0.0543
     24 C          -0.8968   -3.1124    2.2111 C.ar    1  LIG1       -0.0196
     25 C           2.6113    1.2951   -0.7412 C.ar    1  LIG1       -0.0510
     26 C          -4.8623   -0.4253   -0.8570 C.ar    1  LIG1        0.1665
     27 C          -5.3616    1.5918    0.3493 C.ar    1  LIG1       -0.0159
     28 C           2.0108   -0.0844   -3.0680 C.ar    1  LIG1        0.0221
     29 C           3.4640    1.3827   -1.8435 C.ar    1  LIG1       -0.0194
     30 C          -5.7257    0.5920   -0.5231 C.ar    1  LIG1        0.1662
     31 C           3.1628    0.6999   -3.0169 C.ar    1  LIG1        0.1236
     32 C           2.5592   -4.1764    2.2338 C.3     1  LIG1        0.0893
     33 C          -6.6890   -0.6839   -1.9697 C.3     1  LIG1        0.2332
     34 C          -0.8162   -0.7139   -3.2124 C.3     1  LIG1        0.1287
     35 C           3.0182   -3.8005    3.6454 C.3     1  LIG1       -0.0215
     36 C          -0.7694   -1.9073   -4.1927 C.2     1  LIG1        0.0789
     37 C           3.5922    0.4740   -5.3272 C.3     1  LIG1        0.0788
     38 C           2.7992   -2.3382    4.0054 C.3     1  LIG1       -0.0622
     39 H          -1.0730    1.3434   -0.6806 H       1  LIG1        0.0379
     40 H           1.1965    0.8917    1.2957 H       1  LIG1        0.0405
     41 H          -1.8951    0.9210    2.2258 H       1  LIG1        0.0404
     42 H           1.9973   -1.9394    0.8128 H       1  LIG1        0.0657
     43 H          -2.7333   -1.9838    2.3737 H       1  LIG1        0.0622
     44 H          -2.9194   -1.3011   -0.6484 H       1  LIG1        0.0658
     45 H          -3.7451    2.3339    1.5624 H       1  LIG1        0.0622
     46 H          -1.3091   -3.9933    2.6935 H       1  LIG1        0.0654
     47 H           2.8574    1.8551    0.1597 H       1  LIG1        0.0623
     48 H          -6.0327    2.4065    0.5881 H       1  LIG1        0.0655
     49 H           1.7816   -0.6689   -3.9510 H       1  LIG1        0.0691
     50 H           4.3571    1.9963   -1.7855 H       1  LIG1        0.0654
     51 H           3.0309   -3.5602    1.4635 H       1  LIG1        0.0696
     52 H           2.9141   -5.1956    2.0377 H       1  LIG1        0.0696
     53 H          -7.4795   -1.4152   -1.7657 H       1  LIG1        0.1166
     54 H          -6.7493   -0.3922   -3.0250 H       1  LIG1        0.1166
     55 H          -0.5675    0.2238   -3.7264 H       1  LIG1        0.0760
     56 H          -1.8455   -0.6008   -2.8555 H       1  LIG1        0.0760
     57 H           4.0886   -4.0189    3.7343 H       1  LIG1        0.0295
     58 H           2.4924   -4.4210    4.3804 H       1  LIG1        0.0295
     59 H           4.3339    0.8035   -6.0616 H       1  LIG1        0.0660
     60 H           2.6448    0.9667   -5.5724 H       1  LIG1        0.0660
     61 H           3.5099   -0.6146   -5.4066 H       1  LIG1        0.0660
     62 H           3.2536   -1.6753    3.2625 H       1  LIG1        0.0231
     63 H           3.2568   -2.1188    4.9755 H       1  LIG1        0.0231
     64 H           1.7356   -2.0981    4.0884 H       1  LIG1        0.0231
@<TRIPOS>BOND
     1     1    17   ar
     2     2    17   ar
     3     3    20    1
     4     3    32    1
     5     4    21    1
     6     4    34    1
     7     5    26    1
     8     5    33    1
     9     6    30    1
    10     6    33    1
    11     7    31    1
    12     7    37    1
    13     8    36   ar
    14     9    36   ar
    15    10    11    1
    16    10    12    1
    17    10    17    1
    18    11    13    1
    19    11    16    1
    20    12    14    1
    21    12    15    1
    22    13    14   ar
    23    13    18   ar
    24    14    19   ar
    25    15    22   ar
    26    15    23   ar
    27    16    21   ar
    28    16    25   ar
    29    18    20   ar
    30    19    24   ar
    31    20    24   ar
    32    21    28   ar
    33    22    26   ar
    34    23    27   ar
    35    25    29   ar
    36    26    30   ar
    37    27    30   ar
    38    28    31   ar
    39    29    31   ar
    40    32    35    1
    41    34    36    1
    42    35    38    1
    43    10    39    1
    44    11    40    1
    45    12    41    1
    46    18    42    1
    47    19    43    1
    48    22    44    1
    49    23    45    1
    50    24    46    1
    51    25    47    1
    52    27    48    1
    53    28    49    1
    54    29    50    1
    55    32    51    1
    56    32    52    1
    57    33    53    1
    58    33    54    1
    59    34    55    1
    60    34    56    1
    61    35    57    1
    62    35    58    1
    63    37    59    1
    64    37    60    1
    65    37    61    1
    66    38    62    1
    67    38    63    1
    68    38    64    1
@<TRIPOS>MOLECULE
108002
 64 68 0 0 0
SMALL
GASTEIGER

@<TRIPOS>ATOM
      1 O           0.6970    3.0596    1.5703 O.co2   1  LIG1       -0.5495
      2 O          -1.5281    3.1120    1.9929 O.co2   1  LIG1       -0.5495
      3 O           1.2396   -4.3100    1.5141 O.3     1  LIG1       -0.4920
      4 O          -0.2536    0.0982   -2.2302 O.3     1  LIG1       -0.4858
      5 O          -5.0843   -0.1198   -2.3489 O.3     1  LIG1       -0.4526
      6 O          -6.8917    0.7644   -1.0214 O.3     1  LIG1       -0.4526
      7 O           4.2914    0.8232   -3.7901 O.3     1  LIG1       -0.4950
      8 O          -1.4916   -0.9761   -4.6841 O.co2   1  LIG1       -0.5463
      9 O          -0.2901    0.7213   -5.6141 O.co2   1  LIG1       -0.5463
     10 C          -0.6804    1.3328    0.6463 C.3     1  LIG1        0.0203
     11 C           0.6235    0.4905    0.5968 C.3     1  LIG1        0.0218
     12 C          -1.7651    0.4564    1.3355 C.3     1  LIG1        0.0184
     13 C           0.1620   -0.9131    0.9188 C.ar    1  LIG1       -0.0320
     14 C          -1.1703   -0.9342    1.3166 C.ar    1  LIG1       -0.0353
     15 C          -3.1539    0.5336    0.7158 C.ar    1  LIG1       -0.0356
     16 C           1.4965    0.5919   -0.6524 C.ar    1  LIG1        0.0026
     17 C          -0.4846    2.6148    1.4764 C.2     1  LIG1        0.0466
     18 C           0.9353   -2.0684    0.9831 C.ar    1  LIG1       -0.0159
     19 C          -1.7629   -2.1185    1.7335 C.ar    1  LIG1       -0.0542
     20 C           0.3628   -3.2614    1.4350 C.ar    1  LIG1        0.1208
     21 C           1.0617    0.4010   -1.9770 C.ar    1  LIG1        0.1283
     22 C          -3.4029    0.0998   -0.5970 C.ar    1  LIG1       -0.0124
     23 C          -4.2266    1.0537    1.4820 C.ar    1  LIG1       -0.0543
     24 C          -0.9966   -3.2891    1.7761 C.ar    1  LIG1       -0.0196
     25 C           2.8681    0.8614   -0.4496 C.ar    1  LIG1       -0.0510
     26 C          -4.6831    0.2230   -1.0945 C.ar    1  LIG1        0.1665
     27 C          -5.5209    1.1423    0.9606 C.ar    1  LIG1       -0.0159
     28 C           1.9831    0.4413   -3.0333 C.ar    1  LIG1        0.0221
     29 C           3.7714    0.9267   -1.5129 C.ar    1  LIG1       -0.0194
     30 C          -5.7141    0.7268   -0.3377 C.ar    1  LIG1        0.1662
     31 C           3.3307    0.7296   -2.8155 C.ar    1  LIG1        0.1236
     32 C           0.8114   -5.5261    2.1194 C.3     1  LIG1        0.0893
     33 C          -6.4501    0.3193   -2.3224 C.3     1  LIG1        0.2332
     34 C          -0.8416    0.8808   -3.3042 C.3     1  LIG1        0.1287
     35 C           0.3968   -6.5168    1.0377 C.3     1  LIG1       -0.0215
     36 C          -0.8700    0.1253   -4.6527 C.2     1  LIG1        0.0789
     37 C           3.7913    1.0345   -5.1086 C.3     1  LIG1        0.0788
     38 C          -0.0539   -7.8428    1.6249 C.3     1  LIG1       -0.0622
     39 H          -0.9954    1.6576   -0.3512 H       1  LIG1        0.0379
     40 H           1.2459    0.7583    1.4624 H       1  LIG1        0.0405
     41 H          -1.8415    0.7121    2.4021 H       1  LIG1        0.0404
     42 H           1.9852   -2.0343    0.7087 H       1  LIG1        0.0657
     43 H          -2.8070   -2.1305    2.0343 H       1  LIG1        0.0622
     44 H          -2.6103   -0.3110   -1.2144 H       1  LIG1        0.0658
     45 H          -4.0301    1.4180    2.4894 H       1  LIG1        0.0622
     46 H          -1.4920   -4.1989    2.0899 H       1  LIG1        0.0654
     47 H           3.2365    1.0356    0.5597 H       1  LIG1        0.0623
     48 H          -6.3336    1.5459    1.5496 H       1  LIG1        0.0655
     49 H           1.6362    0.2203   -4.0367 H       1  LIG1        0.0691
     50 H           4.8165    1.1422   -1.3195 H       1  LIG1        0.0654
     51 H           0.0429   -5.3859    2.8860 H       1  LIG1        0.0696
     52 H           1.6819   -5.9282    2.6520 H       1  LIG1        0.0696
     53 H          -7.0912   -0.5105   -2.6410 H       1  LIG1        0.1166
     54 H          -6.5722    1.1458   -3.0337 H       1  LIG1        0.1166
     55 H          -0.3547    1.8608   -3.3986 H       1  LIG1        0.0760
     56 H          -1.8803    1.0829   -3.0221 H       1  LIG1        0.0760
     57 H           1.2422   -6.6825    0.3588 H       1  LIG1        0.0295
     58 H          -0.4046   -6.0920    0.4222 H       1  LIG1        0.0295
     59 H           4.6445    1.2734   -5.7510 H       1  LIG1        0.0660
     60 H           3.1015    1.8850   -5.1464 H       1  LIG1        0.0660
     61 H           3.3262    0.1253   -5.5047 H       1  LIG1        0.0660
     62 H           0.7272   -8.2807    2.2546 H       1  LIG1        0.0231
     63 H          -0.2827   -8.5522    0.8246 H       1  LIG1        0.0231
     64 H          -0.9543   -7.7130    2.2332 H       1  LIG1        0.0231
@<TRIPOS>BOND
     1     1    17   ar
     2     2    17   ar
     3     3    20    1
     4     3    32    1
     5     4    21    1
     6     4    34    1
     7     5    26    1
     8     5    33    1
     9     6    30    1
    10     6    33    1
    11     7    31    1
    12     7    37    1
    13     8    36   ar
    14     9    36   ar
    15    10    11    1
    16    10    12    1
    17    10    17    1
    18    11    13    1
    19    11    16    1
    20    12    14    1
    21    12    15    1
    22    13    14   ar
    23    13    18   ar
    24    14    19   ar
    25    15    22   ar
    26    15    23   ar
    27    16    21   ar
    28    16    25   ar
    29    18    20   ar
    30    19    24   ar
    31    20    24   ar
    32    21    28   ar
    33    22    26   ar
    34    23    27   ar
    35    25    29   ar
    36    26    30   ar
    37    27    30   ar
    38    28    31   ar
    39    29    31   ar
    40    32    35    1
    41    34    36    1
    42    35    38    1
    43    10    39    1
    44    11    40    1
    45    12    41    1
    46    18    42    1
    47    19    43    1
    48    22    44    1
    49    23    45    1
    50    24    46    1
    51    25    47    1
    52    27    48    1
    53    28    49    1
    54    29    50    1
    55    32    51    1
    56    32    52    1
    57    33    53    1
    58    33    54    1
    59    34    55    1
    60    34    56    1
    61    35    57    1
    62    35    58    1
    63    37    59    1
    64    37    60    1
    65    37    61    1
    66    38    62    1
    67    38    63    1
    68    38    64    1
@<TRIPOS>MOLECULE
108002
 64 68 0 0 0
SMALL
GASTEIGER

@<TRIPOS>ATOM
      1 O          -0.4104    2.6573    2.4275 O.co2   1  LIG1       -0.5495
      2 O          -1.6334    3.4838    0.6949 O.co2   1  LIG1       -0.5495
      3 O           1.4480   -4.1166    1.9207 O.3     1  LIG1       -0.4920
      4 O           2.5385    2.6653   -0.0071 O.3     1  LIG1       -0.4858
      5 O          -5.2530   -1.3518   -1.9737 O.3     1  LIG1       -0.4526
      6 O          -6.8837    0.2968   -1.2987 O.3     1  LIG1       -0.4526
      7 O           3.8997    0.2768   -4.0189 O.3     1  LIG1       -0.4950
      8 O           4.1528    4.5298   -1.3509 O.co2   1  LIG1       -0.5463
      9 O           5.7100    4.4312    0.2996 O.co2   1  LIG1       -0.5463
     10 C          -0.7637    1.2946    0.5058 C.3     1  LIG1        0.0203
     11 C           0.6167    0.6123    0.6767 C.3     1  LIG1        0.0218
     12 C          -1.8296    0.4271    1.2284 C.3     1  LIG1        0.0184
     13 C           0.2350   -0.7879    1.1519 C.ar    1  LIG1       -0.0320
     14 C          -1.1307   -0.8986    1.4013 C.ar    1  LIG1       -0.0353
     15 C          -3.1790    0.3929    0.5174 C.ar    1  LIG1       -0.0356
     16 C           1.4556    0.6117   -0.6098 C.ar    1  LIG1        0.0026
     17 C          -0.9021    2.6177    1.2652 C.2     1  LIG1        0.0466
     18 C           1.0750   -1.8819    1.3602 C.ar    1  LIG1       -0.0159
     19 C          -1.6759   -2.0938    1.8540 C.ar    1  LIG1       -0.0542
     20 C           0.5347   -3.1046    1.7827 C.ar    1  LIG1        0.1208
     21 C           2.4434    1.5856   -0.8489 C.ar    1  LIG1        0.1283
     22 C          -3.4994   -0.5406   -0.4820 C.ar    1  LIG1       -0.0124
     23 C          -4.1438    1.3677    0.8801 C.ar    1  LIG1       -0.0543
     24 C          -0.8430   -3.2045    2.0200 C.ar    1  LIG1       -0.0196
     25 C           1.2850   -0.3937   -1.5849 C.ar    1  LIG1       -0.0510
     26 C          -4.7677   -0.5009   -1.0272 C.ar    1  LIG1        0.1665
     27 C          -5.4147    1.3945    0.3012 C.ar    1  LIG1       -0.0159
     28 C           3.2554    1.5100   -1.9914 C.ar    1  LIG1        0.0221
     29 C           2.1201   -0.4750   -2.7044 C.ar    1  LIG1       -0.0194
     30 C          -5.6995    0.4369   -0.6429 C.ar    1  LIG1        0.1662
     31 C           3.1252    0.4655   -2.9030 C.ar    1  LIG1        0.1236
     32 C           1.0012   -5.3913    2.3791 C.3     1  LIG1        0.0893
     33 C          -6.5807   -0.8226   -2.1523 C.3     1  LIG1        0.2332
     34 C           3.8734    2.9481    0.4735 C.3     1  LIG1        0.1287
     35 C           0.5906   -6.2714    1.2003 C.3     1  LIG1       -0.0215
     36 C           4.6175    4.0932   -0.2603 C.2     1  LIG1        0.0789
     37 C           5.0103    1.1610   -4.1522 C.3     1  LIG1        0.0788
     38 C           0.0811   -7.6279    1.6559 C.3     1  LIG1       -0.0622
     39 H          -1.0094    1.4410   -0.5545 H       1  LIG1        0.0379
     40 H           1.2095    1.0618    1.4825 H       1  LIG1        0.0405
     41 H          -2.0219    0.7656    2.2578 H       1  LIG1        0.0404
     42 H           2.1421   -1.7863    1.1794 H       1  LIG1        0.0657
     43 H          -2.7365   -2.1622    2.0755 H       1  LIG1        0.0622
     44 H          -2.7784   -1.2767   -0.8189 H       1  LIG1        0.0658
     45 H          -3.8761    2.1361    1.6083 H       1  LIG1        0.0622
     46 H          -1.3066   -4.1276    2.3441 H       1  LIG1        0.0654
     47 H           0.5067   -1.1431   -1.4669 H       1  LIG1        0.0623
     48 H          -6.1338    2.1540    0.5801 H       1  LIG1        0.0655
     49 H           3.9677    2.3061   -2.1659 H       1  LIG1        0.0691
     50 H           1.9834   -1.2790   -3.4201 H       1  LIG1        0.0654
     51 H           0.2243   -5.3171    3.1479 H       1  LIG1        0.0696
     52 H           1.8596   -5.8561    2.8789 H       1  LIG1        0.0696
     53 H          -7.3042   -1.6202   -1.9465 H       1  LIG1        0.1166
     54 H          -6.6971   -0.5090   -3.1961 H       1  LIG1        0.1166
     55 H           4.4971    2.0448    0.4772 H       1  LIG1        0.0760
     56 H           3.7555    3.2572    1.5189 H       1  LIG1        0.0760
     57 H           1.4520   -6.4054    0.5347 H       1  LIG1        0.0295
     58 H          -0.1780   -5.7744    0.5982 H       1  LIG1        0.0295
     59 H           5.5845    0.8429   -5.0280 H       1  LIG1        0.0660
     60 H           5.6767    1.1007   -3.2844 H       1  LIG1        0.0660
     61 H           4.6780    2.1889   -4.3305 H       1  LIG1        0.0660
     62 H           0.8279   -8.1470    2.2651 H       1  LIG1        0.0231
     63 H          -0.1477   -8.2577    0.7903 H       1  LIG1        0.0231
     64 H          -0.8333   -7.5221    2.2484 H       1  LIG1        0.0231
@<TRIPOS>BOND
     1     1    17   ar
     2     2    17   ar
     3     3    20    1
     4     3    32    1
     5     4    21    1
     6     4    34    1
     7     5    26    1
     8     5    33    1
     9     6    30    1
    10     6    33    1
    11     7    31    1
    12     7    37    1
    13     8    36   ar
    14     9    36   ar
    15    10    11    1
    16    10    12    1
    17    10    17    1
    18    11    13    1
    19    11    16    1
    20    12    14    1
    21    12    15    1
    22    13    14   ar
    23    13    18   ar
    24    14    19   ar
    25    15    22   ar
    26    15    23   ar
    27    16    21   ar
    28    16    25   ar
    29    18    20   ar
    30    19    24   ar
    31    20    24   ar
    32    21    28   ar
    33    22    26   ar
    34    23    27   ar
    35    25    29   ar
    36    26    30   ar
    37    27    30   ar
    38    28    31   ar
    39    29    31   ar
    40    32    35    1
    41    34    36    1
    42    35    38    1
    43    10    39    1
    44    11    40    1
    45    12    41    1
    46    18    42    1
    47    19    43    1
    48    22    44    1
    49    23    45    1
    50    24    46    1
    51    25    47    1
    52    27    48    1
    53    28    49    1
    54    29    50    1
    55    32    51    1
    56    32    52    1
    57    33    53    1
    58    33    54    1
    59    34    55    1
    60    34    56    1
    61    35    57    1
    62    35    58    1
    63    37    59    1
    64    37    60    1
    65    37    61    1
    66    38    62    1
    67    38    63    1
    68    38    64    1
@<TRIPOS>MOLECULE
108002
 64 68 0 0 0
SMALL
GASTEIGER

@<TRIPOS>ATOM
      1 O          -0.2718    2.5928    2.6076 O.co2   1  LIG1       -0.5495
      2 O          -1.6180    3.5013    1.0100 O.co2   1  LIG1       -0.5495
      3 O           1.4096   -4.1349    1.8745 O.3     1  LIG1       -0.4920
      4 O           2.6095    2.6926   -0.0077 O.3     1  LIG1       -0.4858
      5 O          -4.8042    0.1112   -2.7165 O.3     1  LIG1       -0.4526
      6 O          -6.7822    0.4133   -1.3689 O.3     1  LIG1       -0.4526
      7 O           3.8261    0.3153   -4.0683 O.3     1  LIG1       -0.4950
      8 O           4.5577    4.3737   -1.3762 O.co2   1  LIG1       -0.5463
      9 O           5.3291    4.8503    0.7077 O.co2   1  LIG1       -0.5463
     10 C          -0.6903    1.3694    0.6058 C.3     1  LIG1        0.0203
     11 C           0.6747    0.6448    0.7197 C.3     1  LIG1        0.0218
     12 C          -1.7814    0.4715    1.2554 C.3     1  LIG1        0.0184
     13 C           0.2707   -0.7616    1.1577 C.ar    1  LIG1       -0.0320
     14 C          -1.1032   -0.8698    1.3652 C.ar    1  LIG1       -0.0353
     15 C          -3.1280    0.4312    0.5440 C.ar    1  LIG1       -0.0356
     16 C           1.4749    0.6551   -0.5935 C.ar    1  LIG1        0.0026
     17 C          -0.8322    2.6225    1.4745 C.2     1  LIG1        0.0466
     18 C           1.0974   -1.8685    1.3492 C.ar    1  LIG1       -0.0159
     19 C          -1.6762   -2.0785    1.7408 C.ar    1  LIG1       -0.0542
     20 C           0.5329   -3.0899    1.7355 C.ar    1  LIG1        0.1208
     21 C           2.4666    1.6196   -0.8523 C.ar    1  LIG1        0.1283
     22 C          -3.2452    0.2383   -0.8409 C.ar    1  LIG1       -0.0124
     23 C          -4.3062    0.5986    1.3206 C.ar    1  LIG1       -0.0543
     24 C          -0.8547   -3.1952    1.9070 C.ar    1  LIG1       -0.0196
     25 C           1.2655   -0.3390   -1.5747 C.ar    1  LIG1       -0.0510
     26 C          -4.5102    0.2509   -1.3941 C.ar    1  LIG1        0.1665
     27 C          -5.5744    0.5883    0.7363 C.ar    1  LIG1       -0.0159
     28 C           3.2420    1.5440   -2.0204 C.ar    1  LIG1        0.0221
     29 C           2.0685   -0.4224   -2.7171 C.ar    1  LIG1       -0.0194
     30 C          -5.6409    0.4218   -0.6265 C.ar    1  LIG1        0.1662
     31 C           3.0788    0.5068   -2.9347 C.ar    1  LIG1        0.1236
     32 C           1.0654   -5.1282    2.8425 C.3     1  LIG1        0.0893
     33 C          -6.2262    0.3328   -2.6961 C.3     1  LIG1        0.2332
     34 C           3.9618    2.9174    0.4604 C.3     1  LIG1        0.1287
     35 C           0.5590   -6.3888    2.1450 C.3     1  LIG1       -0.0215
     36 C           4.6368    4.1848   -0.1261 C.2     1  LIG1        0.0789
     37 C           4.9645    1.1637   -4.2021 C.3     1  LIG1        0.0788
     38 C           0.1562   -7.4612    3.1426 C.3     1  LIG1       -0.0622
     39 H          -0.9141    1.6324   -0.4351 H       1  LIG1        0.0379
     40 H           1.3042    1.0566    1.5173 H       1  LIG1        0.0405
     41 H          -1.9705    0.7690    2.2976 H       1  LIG1        0.0404
     42 H           2.1687   -1.7797    1.1951 H       1  LIG1        0.0657
     43 H          -2.7455   -2.1510    1.9108 H       1  LIG1        0.0622
     44 H          -2.3686    0.1150   -1.4674 H       1  LIG1        0.0658
     45 H          -4.2188    0.7679    2.3926 H       1  LIG1        0.0622
     46 H          -1.3233   -4.1351    2.1725 H       1  LIG1        0.0654
     47 H           0.4846   -1.0838   -1.4424 H       1  LIG1        0.0623
     48 H          -6.4653    0.7354    1.3330 H       1  LIG1        0.0655
     49 H           3.9607    2.3312   -2.2067 H       1  LIG1        0.0691
     50 H           1.9051   -1.2217   -3.4324 H       1  LIG1        0.0654
     51 H           0.3617   -4.7612    3.6001 H       1  LIG1        0.0696
     52 H           1.9887   -5.3689    3.3828 H       1  LIG1        0.0696
     53 H          -6.7158   -0.4908   -3.2275 H       1  LIG1        0.1166
     54 H          -6.4469    1.2681   -3.2257 H       1  LIG1        0.1166
     55 H           4.6107    2.0494    0.2901 H       1  LIG1        0.0760
     56 H           3.8828    3.0431    1.5469 H       1  LIG1        0.0760
     57 H           1.3403   -6.7753    1.4797 H       1  LIG1        0.0295
     58 H          -0.2923   -6.1521    1.4973 H       1  LIG1        0.0295
     59 H           5.5238    0.8319   -5.0827 H       1  LIG1        0.0660
     60 H           5.6338    1.0774   -3.3385 H       1  LIG1        0.0660
     61 H           4.6641    2.2024   -4.3731 H       1  LIG1        0.0660
     62 H           1.0013   -7.7455    3.7774 H       1  LIG1        0.0231
     63 H          -0.1912   -8.3570    2.6181 H       1  LIG1        0.0231
     64 H          -0.6560   -7.1105    3.7876 H       1  LIG1        0.0231
@<TRIPOS>BOND
     1     1    17   ar
     2     2    17   ar
     3     3    20    1
     4     3    32    1
     5     4    21    1
     6     4    34    1
     7     5    26    1
     8     5    33    1
     9     6    30    1
    10     6    33    1
    11     7    31    1
    12     7    37    1
    13     8    36   ar
    14     9    36   ar
    15    10    11    1
    16    10    12    1
    17    10    17    1
    18    11    13    1
    19    11    16    1
    20    12    14    1
    21    12    15    1
    22    13    14   ar
    23    13    18   ar
    24    14    19   ar
    25    15    22   ar
    26    15    23   ar
    27    16    21   ar
    28    16    25   ar
    29    18    20   ar
    30    19    24   ar
    31    20    24   ar
    32    21    28   ar
    33    22    26   ar
    34    23    27   ar
    35    25    29   ar
    36    26    30   ar
    37    27    30   ar
    38    28    31   ar
    39    29    31   ar
    40    32    35    1
    41    34    36    1
    42    35    38    1
    43    10    39    1
    44    11    40    1
    45    12    41    1
    46    18    42    1
    47    19    43    1
    48    22    44    1
    49    23    45    1
    50    24    46    1
    51    25    47    1
    52    27    48    1
    53    28    49    1
    54    29    50    1
    55    32    51    1
    56    32    52    1
    57    33    53    1
    58    33    54    1
    59    34    55    1
    60    34    56    1
    61    35    57    1
    62    35    58    1
    63    37    59    1
    64    37    60    1
    65    37    61    1
    66    38    62    1
    67    38    63    1
    68    38    64    1
@<TRIPOS>MOLECULE
108002
 64 68 0 0 0
SMALL
GASTEIGER

@<TRIPOS>ATOM
      1 O          -0.3320    2.7219    2.5344 O.co2   1  LIG1       -0.5495
      2 O          -1.6880    3.5648    0.9092 O.co2   1  LIG1       -0.5495
      3 O           1.3640   -4.1353    1.7839 O.3     1  LIG1       -0.4920
      4 O           2.6362    2.7567   -0.0410 O.3     1  LIG1       -0.4858
      5 O          -6.7517    0.5185    1.3181 O.3     1  LIG1       -0.4526
      6 O          -6.9248    0.1570   -1.0626 O.3     1  LIG1       -0.4526
      7 O           3.7897    0.3460   -4.1018 O.3     1  LIG1       -0.4950
      8 O           4.6283    4.3818   -1.4150 O.co2   1  LIG1       -0.5463
      9 O           5.4108    4.8449    0.6673 O.co2   1  LIG1       -0.5463
     10 C          -0.7415    1.4326    0.5736 C.3     1  LIG1        0.0203
     11 C           0.6467    0.7564    0.6805 C.3     1  LIG1        0.0218
     12 C          -1.7925    0.5188    1.2689 C.3     1  LIG1        0.0184
     13 C           0.2915   -0.6574    1.1345 C.ar    1  LIG1       -0.0320
     14 C          -1.0709   -0.7997    1.3932 C.ar    1  LIG1       -0.0353
     15 C          -3.1440    0.4109    0.5719 C.ar    1  LIG1       -0.0356
     16 C           1.4360    0.7625   -0.6396 C.ar    1  LIG1        0.0026
     17 C          -0.8976    2.7083    1.4034 C.2     1  LIG1        0.0466
     18 C           1.1558   -1.7421    1.2826 C.ar    1  LIG1       -0.0159
     19 C          -1.5931   -2.0176    1.8111 C.ar    1  LIG1       -0.0542
     20 C           0.6308   -2.9852    1.6441 C.ar    1  LIG1        0.1208
     21 C           2.4614    1.6928   -0.8902 C.ar    1  LIG1        0.1283
     22 C          -4.3147    0.5312    1.3462 C.ar    1  LIG1       -0.0124
     23 C          -3.2604    0.1789   -0.8182 C.ar    1  LIG1       -0.0543
     24 C          -0.7359   -3.1128    1.9296 C.ar    1  LIG1       -0.0196
     25 C           1.1902   -0.2172   -1.6274 C.ar    1  LIG1       -0.0510
     26 C          -5.5348    0.4291    0.7153 C.ar    1  LIG1        0.1665
     27 C          -4.5143    0.0873   -1.4342 C.ar    1  LIG1       -0.0159
     28 C           3.2386    1.5913   -2.0545 C.ar    1  LIG1        0.0221
     29 C           1.9948   -0.3266   -2.7661 C.ar    1  LIG1       -0.0194
     30 C          -5.6320    0.2176   -0.6394 C.ar    1  LIG1        0.1662
     31 C           3.0419    0.5636   -2.9732 C.ar    1  LIG1        0.1236
     32 C           2.4602   -4.2823    0.8780 C.3     1  LIG1        0.0893
     33 C          -7.6193    0.4146    0.1749 C.3     1  LIG1        0.2332
     34 C           3.9938    2.9477    0.4252 C.3     1  LIG1        0.1287
     35 C           3.7765   -4.0680    1.6174 C.3     1  LIG1       -0.0215
     36 C           4.7023    4.1964   -0.1641 C.2     1  LIG1        0.0789
     37 C           4.9545    1.1588   -4.2312 C.3     1  LIG1        0.0788
     38 C           4.9685   -4.2136    0.6884 C.3     1  LIG1       -0.0622
     39 H          -0.9906    1.6598   -0.4697 H       1  LIG1        0.0379
     40 H           1.2696    1.1949    1.4688 H       1  LIG1        0.0405
     41 H          -1.9785    0.8393    2.3047 H       1  LIG1        0.0404
     42 H           2.2140   -1.5931    1.0982 H       1  LIG1        0.0657
     43 H          -2.6476   -2.1161    2.0463 H       1  LIG1        0.0622
     44 H          -4.2603    0.7203    2.4134 H       1  LIG1        0.0658
     45 H          -2.3630    0.0888   -1.4267 H       1  LIG1        0.0622
     46 H          -1.1327   -4.0733    2.2436 H       1  LIG1        0.0654
     47 H           0.3819   -0.9329   -1.4979 H       1  LIG1        0.0623
     48 H          -4.5989   -0.0651   -2.5028 H       1  LIG1        0.0655
     49 H           3.9880    2.3510   -2.2344 H       1  LIG1        0.0691
     50 H           1.8047   -1.1150   -3.4870 H       1  LIG1        0.0654
     51 H           2.3726   -3.6461   -0.0116 H       1  LIG1        0.0696
     52 H           2.4219   -5.3157    0.5121 H       1  LIG1        0.0696
     53 H          -8.1830    1.3501    0.0753 H       1  LIG1        0.1166
     54 H          -8.3294   -0.4017    0.3507 H       1  LIG1        0.1166
     55 H           4.6178    2.0610    0.2572 H       1  LIG1        0.0760
     56 H           3.9194    3.0790    1.5112 H       1  LIG1        0.0760
     57 H           3.8543   -4.7896    2.4395 H       1  LIG1        0.0295
     58 H           3.7921   -3.0783    2.0865 H       1  LIG1        0.0295
     59 H           5.5066    0.8108   -5.1098 H       1  LIG1        0.0660
     60 H           5.6181    1.0514   -3.3652 H       1  LIG1        0.0660
     61 H           4.6873    2.2066   -4.4017 H       1  LIG1        0.0660
     62 H           5.0003   -5.2140    0.2451 H       1  LIG1        0.0231
     63 H           5.9004   -4.0554    1.2393 H       1  LIG1        0.0231
     64 H           4.9237   -3.4795   -0.1225 H       1  LIG1        0.0231
@<TRIPOS>BOND
     1     1    17   ar
     2     2    17   ar
     3     3    20    1
     4     3    32    1
     5     4    21    1
     6     4    34    1
     7     5    26    1
     8     5    33    1
     9     6    30    1
    10     6    33    1
    11     7    31    1
    12     7    37    1
    13     8    36   ar
    14     9    36   ar
    15    10    11    1
    16    10    12    1
    17    10    17    1
    18    11    13    1
    19    11    16    1
    20    12    14    1
    21    12    15    1
    22    13    14   ar
    23    13    18   ar
    24    14    19   ar
    25    15    22   ar
    26    15    23   ar
    27    16    21   ar
    28    16    25   ar
    29    18    20   ar
    30    19    24   ar
    31    20    24   ar
    32    21    28   ar
    33    22    26   ar
    34    23    27   ar
    35    25    29   ar
    36    26    30   ar
    37    27    30   ar
    38    28    31   ar
    39    29    31   ar
    40    32    35    1
    41    34    36    1
    42    35    38    1
    43    10    39    1
    44    11    40    1
    45    12    41    1
    46    18    42    1
    47    19    43    1
    48    22    44    1
    49    23    45    1
    50    24    46    1
    51    25    47    1
    52    27    48    1
    53    28    49    1
    54    29    50    1
    55    32    51    1
    56    32    52    1
    57    33    53    1
    58    33    54    1
    59    34    55    1
    60    34    56    1
    61    35    57    1
    62    35    58    1
    63    37    59    1
    64    37    60    1
    65    37    61    1
    66    38    62    1
    67    38    63    1
    68    38    64    1
@<TRIPOS>MOLECULE
108002
 64 68 0 0 0
SMALL
GASTEIGER

@<TRIPOS>ATOM
      1 O          -0.1760    2.6473    2.6028 O.co2   1  LIG1       -0.5495
      2 O          -1.5578    3.5671    1.0422 O.co2   1  LIG1       -0.5495
      3 O           1.2158   -4.2165    1.5406 O.3     1  LIG1       -0.4920
      4 O           2.6051    2.6944   -0.0276 O.3     1  LIG1       -0.4858
      5 O          -4.7885    0.1082   -2.6575 O.3     1  LIG1       -0.4526
      6 O          -6.7739    0.4217   -1.3232 O.3     1  LIG1       -0.4526
      7 O           3.8051    0.3138   -4.0914 O.3     1  LIG1       -0.4950
      8 O           4.5551    4.3665   -1.4067 O.co2   1  LIG1       -0.5463
      9 O           5.3338    4.8485    0.6726 O.co2   1  LIG1       -0.5463
     10 C          -0.6812    1.4173    0.6261 C.3     1  LIG1        0.0203
     11 C           0.6646    0.6545    0.7002 C.3     1  LIG1        0.0218
     12 C          -1.7787    0.5556    1.3167 C.3     1  LIG1        0.0184
     13 C           0.2305   -0.7457    1.1303 C.ar    1  LIG1       -0.0320
     14 C          -1.1267   -0.7976    1.4407 C.ar    1  LIG1       -0.0353
     15 C          -3.1274    0.5075    0.6039 C.ar    1  LIG1       -0.0356
     16 C           1.4505    0.6707   -0.6211 C.ar    1  LIG1        0.0026
     17 C          -0.7711    2.6791    1.4880 C.2     1  LIG1        0.0466
     18 C           1.0114   -1.8979    1.2240 C.ar    1  LIG1       -0.0159
     19 C          -1.7153   -1.9738    1.8900 C.ar    1  LIG1       -0.0542
     20 C           0.4084   -3.1081    1.5861 C.ar    1  LIG1        0.1208
     21 C           2.4544    1.6245   -0.8749 C.ar    1  LIG1        0.1283
     22 C          -3.2390    0.2853   -0.7791 C.ar    1  LIG1       -0.0124
     23 C          -4.3075    0.6805    1.3722 C.ar    1  LIG1       -0.0543
     24 C          -0.9419   -3.1322    1.9625 C.ar    1  LIG1       -0.0196
     25 C           1.2240   -0.3109   -1.6107 C.ar    1  LIG1       -0.0510
     26 C          -4.5011    0.2783   -1.3372 C.ar    1  LIG1        0.1665
     27 C          -5.5740    0.6483    0.7833 C.ar    1  LIG1       -0.0159
     28 C           3.2314    1.5429   -2.0411 C.ar    1  LIG1        0.0221
     29 C           2.0286   -0.4006   -2.7517 C.ar    1  LIG1       -0.0194
     30 C          -5.6353    0.4551   -0.5772 C.ar    1  LIG1        0.1662
     31 C           3.0555    0.5124   -2.9606 C.ar    1  LIG1        0.1236
     32 C           0.5392   -5.4549    1.3096 C.3     1  LIG1        0.0893
     33 C          -6.2122    0.3184   -2.6468 C.3     1  LIG1        0.2332
     34 C           3.9589    2.9185    0.4366 C.3     1  LIG1        0.1287
     35 C           1.4692   -6.3732    0.5222 C.3     1  LIG1       -0.0215
     36 C           4.6357    4.1822   -0.1571 C.2     1  LIG1        0.0789
     37 C           4.9571    1.1454   -4.2161 C.3     1  LIG1        0.0788
     38 C           0.8250   -7.7218    0.2498 C.3     1  LIG1       -0.0622
     39 H          -0.9284    1.6812   -0.4092 H       1  LIG1        0.0379
     40 H           1.3166    1.0359    1.4952 H       1  LIG1        0.0405
     41 H          -1.9592    0.8820    2.3515 H       1  LIG1        0.0404
     42 H           2.0668   -1.8627    0.9702 H       1  LIG1        0.0657
     43 H          -2.7612   -1.9900    2.1782 H       1  LIG1        0.0622
     44 H          -2.3604    0.1511   -1.4005 H       1  LIG1        0.0658
     45 H          -4.2243    0.8670    2.4419 H       1  LIG1        0.0622
     46 H          -1.4131   -4.0413    2.3183 H       1  LIG1        0.0654
     47 H           0.4305   -1.0432   -1.4846 H       1  LIG1        0.0623
     48 H          -6.4682    0.7970    1.3746 H       1  LIG1        0.0655
     49 H           3.9619    2.3201   -2.2225 H       1  LIG1        0.0691
     50 H           1.8547   -1.1931   -3.4723 H       1  LIG1        0.0654
     51 H          -0.3787   -5.3222    0.7234 H       1  LIG1        0.0696
     52 H           0.2899   -5.9044    2.2777 H       1  LIG1        0.0696
     53 H          -6.6930   -0.5199   -3.1632 H       1  LIG1        0.1166
     54 H          -6.4385    1.2406   -3.1963 H       1  LIG1        0.1166
     55 H           4.6049    2.0475    0.2689 H       1  LIG1        0.0760
     56 H           3.8821    3.0502    1.5221 H       1  LIG1        0.0760
     57 H           2.4121   -6.5079    1.0644 H       1  LIG1        0.0295
     58 H           1.7308   -5.8916   -0.4281 H       1  LIG1        0.0295
     59 H           5.5165    0.8086   -5.0946 H       1  LIG1        0.0660
     60 H           5.6204    1.0464   -3.3490 H       1  LIG1        0.0660
     61 H           4.6733    2.1893   -4.3849 H       1  LIG1        0.0660
     62 H           0.6309   -8.2581    1.1841 H       1  LIG1        0.0231
     63 H           1.4833   -8.3405   -0.3678 H       1  LIG1        0.0231
     64 H          -0.1255   -7.6048   -0.2813 H       1  LIG1        0.0231
@<TRIPOS>BOND
     1     1    17   ar
     2     2    17   ar
     3     3    20    1
     4     3    32    1
     5     4    21    1
     6     4    34    1
     7     5    26    1
     8     5    33    1
     9     6    30    1
    10     6    33    1
    11     7    31    1
    12     7    37    1
    13     8    36   ar
    14     9    36   ar
    15    10    11    1
    16    10    12    1
    17    10    17    1
    18    11    13    1
    19    11    16    1
    20    12    14    1
    21    12    15    1
    22    13    14   ar
    23    13    18   ar
    24    14    19   ar
    25    15    22   ar
    26    15    23   ar
    27    16    21   ar
    28    16    25   ar
    29    18    20   ar
    30    19    24   ar
    31    20    24   ar
    32    21    28   ar
    33    22    26   ar
    34    23    27   ar
    35    25    29   ar
    36    26    30   ar
    37    27    30   ar
    38    28    31   ar
    39    29    31   ar
    40    32    35    1
    41    34    36    1
    42    35    38    1
    43    10    39    1
    44    11    40    1
    45    12    41    1
    46    18    42    1
    47    19    43    1
    48    22    44    1
    49    23    45    1
    50    24    46    1
    51    25    47    1
    52    27    48    1
    53    28    49    1
    54    29    50    1
    55    32    51    1
    56    32    52    1
    57    33    53    1
    58    33    54    1
    59    34    55    1
    60    34    56    1
    61    35    57    1
    62    35    58    1
    63    37    59    1
    64    37    60    1
    65    37    61    1
    66    38    62    1
    67    38    63    1
    68    38    64    1
@<TRIPOS>MOLECULE
108002
 64 68 0 0 0
SMALL
GASTEIGER

@<TRIPOS>ATOM
      1 O          -0.3250    2.6593    2.5808 O.co2   1  LIG1       -0.5495
      2 O          -1.6811    3.5428    0.9774 O.co2   1  LIG1       -0.5495
      3 O           1.3358   -4.1582    1.8328 O.3     1  LIG1       -0.4920
      4 O           2.6372    2.7326   -0.0083 O.3     1  LIG1       -0.4858
      5 O          -4.8373    0.0955   -2.7013 O.3     1  LIG1       -0.4526
      6 O          -6.8114    0.3793   -1.3438 O.3     1  LIG1       -0.4526
      7 O           3.7974    0.3565   -4.0899 O.3     1  LIG1       -0.4950
      8 O           4.5935    4.3925   -1.3908 O.co2   1  LIG1       -0.5463
      9 O           5.3933    4.8498    0.6860 O.co2   1  LIG1       -0.5463
     10 C          -0.7319    1.4182    0.5882 C.3     1  LIG1        0.0203
     11 C           0.6492    0.7268    0.6940 C.3     1  LIG1        0.0218
     12 C          -1.7964    0.4967    1.2508 C.3     1  LIG1        0.0184
     13 C           0.2789   -0.6900    1.1277 C.ar    1  LIG1       -0.0320
     14 C          -1.0904   -0.8315    1.3475 C.ar    1  LIG1       -0.0353
     15 C          -3.1486    0.4342    0.5512 C.ar    1  LIG1       -0.0356
     16 C           1.4429    0.7414   -0.6240 C.ar    1  LIG1        0.0026
     17 C          -0.8887    2.6741    1.4496 C.2     1  LIG1        0.0466
     18 C           1.1388   -1.7749    1.2970 C.ar    1  LIG1       -0.0159
     19 C          -1.6276   -2.0536    1.7327 C.ar    1  LIG1       -0.0542
     20 C           0.6016   -3.0202    1.6336 C.ar    1  LIG1        0.1208
     21 C           2.4668    1.6753   -0.8671 C.ar    1  LIG1        0.1283
     22 C          -3.2714    0.2378   -0.8337 C.ar    1  LIG1       -0.0124
     23 C          -4.3228    0.5887    1.3335 C.ar    1  LIG1       -0.0543
     24 C          -0.7745   -3.1500    1.8677 C.ar    1  LIG1       -0.0196
     25 C           1.2003   -0.2318   -1.6192 C.ar    1  LIG1       -0.0510
     26 C          -4.5389    0.2377   -1.3799 C.ar    1  LIG1        0.1665
     27 C          -5.5939    0.5650    0.7559 C.ar    1  LIG1       -0.0159
     28 C           3.2455    1.5841   -2.0318 C.ar    1  LIG1        0.0221
     29 C           2.0050   -0.3304   -2.7588 C.ar    1  LIG1       -0.0194
     30 C          -5.6671    0.3979   -0.6064 C.ar    1  LIG1        0.1662
     31 C           3.0497    0.5639   -2.9595 C.ar    1  LIG1        0.1236
     32 C           2.4327   -4.3682    0.9418 C.3     1  LIG1        0.0893
     33 C          -6.2612    0.3041   -2.6738 C.3     1  LIG1        0.2332
     34 C           3.9965    2.9381    0.4464 C.3     1  LIG1        0.1287
     35 C           3.6873   -4.6881    1.7506 C.3     1  LIG1       -0.0215
     36 C           4.6828    4.1978   -0.1435 C.2     1  LIG1        0.0789
     37 C           4.9546    1.1798   -4.2198 C.3     1  LIG1        0.0788
     38 C           4.1588   -3.5092    2.5883 C.3     1  LIG1       -0.0622
     39 H          -0.9694    1.6708   -0.4522 H       1  LIG1        0.0379
     40 H           1.2737    1.1501    1.4893 H       1  LIG1        0.0405
     41 H          -1.9797    0.7901    2.2953 H       1  LIG1        0.0404
     42 H           2.2035   -1.6208    1.1647 H       1  LIG1        0.0657
     43 H          -2.6880   -2.1511    1.9393 H       1  LIG1        0.0622
     44 H          -2.3974    0.1235   -1.4654 H       1  LIG1        0.0658
     45 H          -4.2310    0.7602    2.4051 H       1  LIG1        0.0622
     46 H          -1.1801   -4.1112    2.1681 H       1  LIG1        0.0654
     47 H           0.3916   -0.9486   -1.4974 H       1  LIG1        0.0623
     48 H          -6.4822    0.7051    1.3572 H       1  LIG1        0.0655
     49 H           3.9932    2.3464   -2.2067 H       1  LIG1        0.0691
     50 H           1.8149   -1.1126   -3.4863 H       1  LIG1        0.0654
     51 H           2.6169   -3.5488    0.2387 H       1  LIG1        0.0696
     52 H           2.1784   -5.2443    0.3333 H       1  LIG1        0.0696
     53 H          -6.7454   -0.5238   -3.2032 H       1  LIG1        0.1166
     54 H          -6.4926    1.2373   -3.2020 H       1  LIG1        0.1166
     55 H           4.6308    2.0610    0.2691 H       1  LIG1        0.0760
     56 H           3.9296    3.0628    1.5336 H       1  LIG1        0.0760
     57 H           4.4904   -4.9922    1.0703 H       1  LIG1        0.0295
     58 H           3.4843   -5.5305    2.4225 H       1  LIG1        0.0295
     59 H           5.5048    0.8419   -5.1035 H       1  LIG1        0.0660
     60 H           5.6228    1.0716   -3.3579 H       1  LIG1        0.0660
     61 H           4.6778    2.2265   -4.3823 H       1  LIG1        0.0660
     62 H           4.3914   -2.6478    1.9545 H       1  LIG1        0.0231
     63 H           5.0649   -3.7772    3.1406 H       1  LIG1        0.0231
     64 H           3.3993   -3.2079    3.3165 H       1  LIG1        0.0231
@<TRIPOS>BOND
     1     1    17   ar
     2     2    17   ar
     3     3    20    1
     4     3    32    1
     5     4    21    1
     6     4    34    1
     7     5    26    1
     8     5    33    1
     9     6    30    1
    10     6    33    1
    11     7    31    1
    12     7    37    1
    13     8    36   ar
    14     9    36   ar
    15    10    11    1
    16    10    12    1
    17    10    17    1
    18    11    13    1
    19    11    16    1
    20    12    14    1
    21    12    15    1
    22    13    14   ar
    23    13    18   ar
    24    14    19   ar
    25    15    22   ar
    26    15    23   ar
    27    16    21   ar
    28    16    25   ar
    29    18    20   ar
    30    19    24   ar
    31    20    24   ar
    32    21    28   ar
    33    22    26   ar
    34    23    27   ar
    35    25    29   ar
    36    26    30   ar
    37    27    30   ar
    38    28    31   ar
    39    29    31   ar
    40    32    35    1
    41    34    36    1
    42    35    38    1
    43    10    39    1
    44    11    40    1
    45    12    41    1
    46    18    42    1
    47    19    43    1
    48    22    44    1
    49    23    45    1
    50    24    46    1
    51    25    47    1
    52    27    48    1
    53    28    49    1
    54    29    50    1
    55    32    51    1
    56    32    52    1
    57    33    53    1
    58    33    54    1
    59    34    55    1
    60    34    56    1
    61    35    57    1
    62    35    58    1
    63    37    59    1
    64    37    60    1
    65    37    61    1
    66    38    62    1
    67    38    63    1
    68    38    64    1
@<TRIPOS>MOLECULE
108002
 64 68 0 0 0
SMALL
GASTEIGER

@<TRIPOS>ATOM
      1 O          -0.2920    2.6596    2.5655 O.co2   1  LIG1       -0.5495
      2 O          -1.6539    3.5516    0.9726 O.co2   1  LIG1       -0.5495
      3 O           1.3468   -4.1075    2.0372 O.3     1  LIG1       -0.4920
      4 O           2.6302    2.7543   -0.0537 O.3     1  LIG1       -0.4858
      5 O          -4.8258    0.1018   -2.7181 O.3     1  LIG1       -0.4526
      6 O          -6.7985    0.3693   -1.3551 O.3     1  LIG1       -0.4526
      7 O           3.8020    0.3640   -4.1182 O.3     1  LIG1       -0.4950
      8 O           4.6273    4.3916   -1.4039 O.co2   1  LIG1       -0.5463
      9 O           5.3925    4.8465    0.6895 O.co2   1  LIG1       -0.5463
     10 C          -0.7113    1.4279    0.5687 C.3     1  LIG1        0.0203
     11 C           0.6685    0.7324    0.6745 C.3     1  LIG1        0.0218
     12 C          -1.7796    0.5108    1.2299 C.3     1  LIG1        0.0184
     13 C           0.2987   -0.6772    1.1308 C.ar    1  LIG1       -0.0320
     14 C          -1.0728   -0.8153    1.3448 C.ar    1  LIG1       -0.0353
     15 C          -3.1313    0.4420    0.5314 C.ar    1  LIG1       -0.0356
     16 C           1.4587    0.7391   -0.6434 C.ar    1  LIG1        0.0026
     17 C          -0.8614    2.6811    1.4359 C.2     1  LIG1        0.0466
     18 C           1.1603   -1.7549    1.3410 C.ar    1  LIG1       -0.0159
     19 C          -1.6147   -2.0309    1.7420 C.ar    1  LIG1       -0.0542
     20 C           0.6260   -2.9754    1.7639 C.ar    1  LIG1        0.1208
     21 C           2.4662    1.6867   -0.9011 C.ar    1  LIG1        0.1283
     22 C          -3.2555    0.2481   -0.8537 C.ar    1  LIG1       -0.0124
     23 C          -4.3052    0.5860    1.3166 C.ar    1  LIG1       -0.0543
     24 C          -0.7590   -3.1154    1.9334 C.ar    1  LIG1       -0.0196
     25 C           1.2281   -0.2484   -1.6265 C.ar    1  LIG1       -0.0510
     26 C          -4.5245    0.2415   -1.3969 C.ar    1  LIG1        0.1665
     27 C          -5.5779    0.5557    0.7423 C.ar    1  LIG1       -0.0159
     28 C           3.2386    1.6006   -2.0701 C.ar    1  LIG1        0.0221
     29 C           2.0278   -0.3424   -2.7707 C.ar    1  LIG1       -0.0194
     30 C          -5.6520    0.3923   -0.6210 C.ar    1  LIG1        0.1662
     31 C           3.0562    0.5680   -2.9859 C.ar    1  LIG1        0.1236
     32 C           2.7139   -3.9077    2.4009 C.3     1  LIG1        0.0893
     33 C          -6.2506    0.3025   -2.6864 C.3     1  LIG1        0.2332
     34 C           3.9847    2.9440    0.4228 C.3     1  LIG1        0.1287
     35 C           3.0970   -5.0402    3.3502 C.3     1  LIG1       -0.0215
     36 C           4.6917    4.1971   -0.1553 C.2     1  LIG1        0.0789
     37 C           4.9634    1.1823   -4.2419 C.3     1  LIG1        0.0788
     38 C           4.5556   -4.9703    3.7622 C.3     1  LIG1       -0.0622
     39 H          -0.9486    1.6854   -0.4712 H       1  LIG1        0.0379
     40 H           1.2965    1.1638    1.4627 H       1  LIG1        0.0405
     41 H          -1.9669    0.8119    2.2716 H       1  LIG1        0.0404
     42 H           2.2208   -1.6179    1.1612 H       1  LIG1        0.0657
     43 H          -2.6791   -2.1292    1.9263 H       1  LIG1        0.0622
     44 H          -2.3822    0.1407   -1.4875 H       1  LIG1        0.0658
     45 H          -4.2127    0.7542    2.3887 H       1  LIG1        0.0622
     46 H          -1.1669   -4.0692    2.2540 H       1  LIG1        0.0654
     47 H           0.4340   -0.9786   -1.4931 H       1  LIG1        0.0623
     48 H          -6.4664    0.6865    1.3464 H       1  LIG1        0.0655
     49 H           3.9707    2.3758   -2.2554 H       1  LIG1        0.0691
     50 H           1.8484   -1.1355   -3.4891 H       1  LIG1        0.0654
     51 H           2.8707   -2.9541    2.9186 H       1  LIG1        0.0696
     52 H           3.3285   -3.9406    1.4941 H       1  LIG1        0.0696
     53 H          -6.7323   -0.5254   -3.2180 H       1  LIG1        0.1166
     54 H          -6.4885    1.2370   -3.2099 H       1  LIG1        0.1166
     55 H           4.6141    2.0619    0.2508 H       1  LIG1        0.0760
     56 H           3.9031    3.0662    1.5091 H       1  LIG1        0.0760
     57 H           2.8845   -6.0099    2.8841 H       1  LIG1        0.0295
     58 H           2.4598   -4.9904    4.2422 H       1  LIG1        0.0295
     59 H           5.5203    0.8381   -5.1194 H       1  LIG1        0.0660
     60 H           5.6244    1.0762   -3.3738 H       1  LIG1        0.0660
     61 H           4.6921    2.2291   -4.4119 H       1  LIG1        0.0660
     62 H           5.2118   -5.1189    2.8990 H       1  LIG1        0.0231
     63 H           4.7789   -5.7502    4.4974 H       1  LIG1        0.0231
     64 H           4.7921   -4.0015    4.2129 H       1  LIG1        0.0231
@<TRIPOS>BOND
     1     1    17   ar
     2     2    17   ar
     3     3    20    1
     4     3    32    1
     5     4    21    1
     6     4    34    1
     7     5    26    1
     8     5    33    1
     9     6    30    1
    10     6    33    1
    11     7    31    1
    12     7    37    1
    13     8    36   ar
    14     9    36   ar
    15    10    11    1
    16    10    12    1
    17    10    17    1
    18    11    13    1
    19    11    16    1
    20    12    14    1
    21    12    15    1
    22    13    14   ar
    23    13    18   ar
    24    14    19   ar
    25    15    22   ar
    26    15    23   ar
    27    16    21   ar
    28    16    25   ar
    29    18    20   ar
    30    19    24   ar
    31    20    24   ar
    32    21    28   ar
    33    22    26   ar
    34    23    27   ar
    35    25    29   ar
    36    26    30   ar
    37    27    30   ar
    38    28    31   ar
    39    29    31   ar
    40    32    35    1
    41    34    36    1
    42    35    38    1
    43    10    39    1
    44    11    40    1
    45    12    41    1
    46    18    42    1
    47    19    43    1
    48    22    44    1
    49    23    45    1
    50    24    46    1
    51    25    47    1
    52    27    48    1
    53    28    49    1
    54    29    50    1
    55    32    51    1
    56    32    52    1
    57    33    53    1
    58    33    54    1
    59    34    55    1
    60    34    56    1
    61    35    57    1
    62    35    58    1
    63    37    59    1
    64    37    60    1
    65    37    61    1
    66    38    62    1
    67    38    63    1
    68    38    64    1
@<TRIPOS>MOLECULE
108002
 64 68 0 0 0
SMALL
GASTEIGER

@<TRIPOS>ATOM
      1 O          -0.2637    2.6253    2.6053 O.co2   1  LIG1       -0.5495
      2 O          -1.6175    3.5222    1.0070 O.co2   1  LIG1       -0.5495
      3 O           1.2824   -4.2405    1.7693 O.3     1  LIG1       -0.4920
      4 O           2.6664    2.6918    0.0071 O.3     1  LIG1       -0.4858
      5 O          -4.7923    0.0885   -2.6901 O.3     1  LIG1       -0.4526
      6 O          -6.7705    0.3812   -1.3406 O.3     1  LIG1       -0.4526
      7 O           3.8057    0.3339   -4.0900 O.3     1  LIG1       -0.4950
      8 O           4.6625    4.3342   -1.3642 O.co2   1  LIG1       -0.5463
      9 O           5.3924    4.8208    0.7326 O.co2   1  LIG1       -0.5463
     10 C          -0.6889    1.3905    0.6119 C.3     1  LIG1        0.0203
     11 C           0.6834    0.6801    0.7134 C.3     1  LIG1        0.0218
     12 C          -1.7651    0.4825    1.2746 C.3     1  LIG1        0.0184
     13 C           0.2962   -0.7343    1.1410 C.ar    1  LIG1       -0.0320
     14 C          -1.0743   -0.8537    1.3733 C.ar    1  LIG1       -0.0353
     15 C          -3.1147    0.4302    0.5690 C.ar    1  LIG1       -0.0356
     16 C           1.4746    0.6971   -0.6059 C.ar    1  LIG1        0.0026
     17 C          -0.8320    2.6475    1.4739 C.2     1  LIG1        0.0466
     18 C           1.1372   -1.8380    1.2907 C.ar    1  LIG1       -0.0159
     19 C          -1.6298   -2.0673    1.7594 C.ar    1  LIG1       -0.0542
     20 C           0.5771   -3.0756    1.6214 C.ar    1  LIG1        0.1208
     21 C           2.4936    1.6353   -0.8524 C.ar    1  LIG1        0.1283
     22 C          -3.2332    0.2318   -0.8166 C.ar    1  LIG1       -0.0124
     23 C          -4.2918    0.5908    1.3460 C.ar    1  LIG1       -0.0543
     24 C          -0.7972   -3.1803    1.8757 C.ar    1  LIG1       -0.0196
     25 C           1.2300   -0.2740   -1.6028 C.ar    1  LIG1       -0.0510
     26 C          -4.4986    0.2343   -1.3680 C.ar    1  LIG1        0.1665
     27 C          -5.5611    0.5700    0.7633 C.ar    1  LIG1       -0.0159
     28 C           3.2642    1.5517   -2.0228 C.ar    1  LIG1        0.0221
     29 C           2.0276   -0.3664   -2.7472 C.ar    1  LIG1       -0.0194
     30 C          -5.6289    0.3997   -0.5995 C.ar    1  LIG1        0.1662
     31 C           3.0668    0.5339   -2.9525 C.ar    1  LIG1        0.1236
     32 C           2.3797   -4.4249    0.8723 C.3     1  LIG1        0.0893
     33 C          -6.2160    0.2995   -2.6686 C.3     1  LIG1        0.2332
     34 C           4.0269    2.8887    0.4658 C.3     1  LIG1        0.1287
     35 C           3.6838   -4.3921    1.6608 C.3     1  LIG1       -0.0215
     36 C           4.7145    4.1536   -0.1128 C.2     1  LIG1        0.0789
     37 C           4.9520    1.1710   -4.2318 C.3     1  LIG1        0.0788
     38 C           4.8835   -4.6744    0.7740 C.3     1  LIG1       -0.0622
     39 H          -0.9249    1.6479   -0.4271 H       1  LIG1        0.0379
     40 H           1.3141    1.0922    1.5100 H       1  LIG1        0.0405
     41 H          -1.9489    0.7794    2.3178 H       1  LIG1        0.0404
     42 H           2.2028   -1.7107    1.1373 H       1  LIG1        0.0657
     43 H          -2.6902   -2.1468    1.9741 H       1  LIG1        0.0622
     44 H          -2.3572    0.1119   -1.4442 H       1  LIG1        0.0658
     45 H          -4.2039    0.7633    2.4179 H       1  LIG1        0.0622
     46 H          -1.2185   -4.1375    2.1679 H       1  LIG1        0.0654
     47 H           0.4234   -0.9933   -1.4792 H       1  LIG1        0.0623
     48 H          -6.4519    0.7119    1.3608 H       1  LIG1        0.0655
     49 H           4.0071    2.3183   -2.2000 H       1  LIG1        0.0691
     50 H           1.8358   -1.1470   -3.4761 H       1  LIG1        0.0654
     51 H           2.3876   -3.7186    0.0338 H       1  LIG1        0.0696
     52 H           2.2522   -5.4201    0.4297 H       1  LIG1        0.0696
     53 H          -6.7000   -0.5301   -3.1957 H       1  LIG1        0.1166
     54 H          -6.4443    1.2306   -3.2016 H       1  LIG1        0.1166
     55 H           4.6594    2.0128    0.2781 H       1  LIG1        0.0760
     56 H           3.9593    3.0015    1.5538 H       1  LIG1        0.0760
     57 H           3.6403   -5.1308    2.4704 H       1  LIG1        0.0295
     58 H           3.8016   -3.4178    2.1481 H       1  LIG1        0.0295
     59 H           5.4951    0.8405   -5.1227 H       1  LIG1        0.0660
     60 H           5.6313    1.0681   -3.3782 H       1  LIG1        0.0660
     61 H           4.6613    2.2139   -4.3889 H       1  LIG1        0.0660
     62 H           4.8003   -5.6596    0.3039 H       1  LIG1        0.0231
     63 H           5.8042   -4.6577    1.3652 H       1  LIG1        0.0231
     64 H           4.9718   -3.9225   -0.0163 H       1  LIG1        0.0231
@<TRIPOS>BOND
     1     1    17   ar
     2     2    17   ar
     3     3    20    1
     4     3    32    1
     5     4    21    1
     6     4    34    1
     7     5    26    1
     8     5    33    1
     9     6    30    1
    10     6    33    1
    11     7    31    1
    12     7    37    1
    13     8    36   ar
    14     9    36   ar
    15    10    11    1
    16    10    12    1
    17    10    17    1
    18    11    13    1
    19    11    16    1
    20    12    14    1
    21    12    15    1
    22    13    14   ar
    23    13    18   ar
    24    14    19   ar
    25    15    22   ar
    26    15    23   ar
    27    16    21   ar
    28    16    25   ar
    29    18    20   ar
    30    19    24   ar
    31    20    24   ar
    32    21    28   ar
    33    22    26   ar
    34    23    27   ar
    35    25    29   ar
    36    26    30   ar
    37    27    30   ar
    38    28    31   ar
    39    29    31   ar
    40    32    35    1
    41    34    36    1
    42    35    38    1
    43    10    39    1
    44    11    40    1
    45    12    41    1
    46    18    42    1
    47    19    43    1
    48    22    44    1
    49    23    45    1
    50    24    46    1
    51    25    47    1
    52    27    48    1
    53    28    49    1
    54    29    50    1
    55    32    51    1
    56    32    52    1
    57    33    53    1
    58    33    54    1
    59    34    55    1
    60    34    56    1
    61    35    57    1
    62    35    58    1
    63    37    59    1
    64    37    60    1
    65    37    61    1
    66    38    62    1
    67    38    63    1
    68    38    64    1
@<TRIPOS>MOLECULE
108002
 64 68 0 0 0
SMALL
GASTEIGER

@<TRIPOS>ATOM
      1 O          -0.2678    2.6531    2.5658 O.co2   1  LIG1       -0.5495
      2 O          -1.6143    3.5245    0.9468 O.co2   1  LIG1       -0.5495
      3 O           1.2848   -4.2380    1.7805 O.3     1  LIG1       -0.4920
      4 O           2.6559    2.6996   -0.0040 O.3     1  LIG1       -0.4858
      5 O          -6.7210    0.5274    1.3137 O.3     1  LIG1       -0.4526
      6 O          -6.8939    0.1929   -1.0709 O.3     1  LIG1       -0.4526
      7 O           3.8310    0.3227   -4.0795 O.3     1  LIG1       -0.4950
      8 O           4.6185    4.3607   -1.3899 O.co2   1  LIG1       -0.5463
      9 O           5.3800    4.8496    0.6955 O.co2   1  LIG1       -0.5463
     10 C          -0.6896    1.3845    0.5946 C.3     1  LIG1        0.0203
     11 C           0.6853    0.6804    0.7071 C.3     1  LIG1        0.0218
     12 C          -1.7626    0.4850    1.2729 C.3     1  LIG1        0.0184
     13 C           0.3007   -0.7321    1.1446 C.ar    1  LIG1       -0.0320
     14 C          -1.0676   -0.8489    1.3866 C.ar    1  LIG1       -0.0353
     15 C          -3.1131    0.4068    0.5700 C.ar    1  LIG1       -0.0356
     16 C           1.4820    0.6923   -0.6086 C.ar    1  LIG1        0.0026
     17 C          -0.8321    2.6558    1.4345 C.2     1  LIG1        0.0466
     18 C           1.1413   -1.8362    1.2954 C.ar    1  LIG1       -0.0159
     19 C          -1.6219   -2.0598    1.7840 C.ar    1  LIG1       -0.0542
     20 C           0.5820   -3.0719    1.6351 C.ar    1  LIG1        0.1208
     21 C           2.4957    1.6361   -0.8568 C.ar    1  LIG1        0.1283
     22 C          -4.2840    0.5273    1.3440 C.ar    1  LIG1       -0.0124
     23 C          -3.2293    0.1932   -0.8228 C.ar    1  LIG1       -0.0543
     24 C          -0.7905   -3.1733    1.9001 C.ar    1  LIG1       -0.0196
     25 C           1.2483   -0.2870   -1.5996 C.ar    1  LIG1       -0.0510
     26 C          -5.5041    0.4399    0.7108 C.ar    1  LIG1        0.1665
     27 C          -4.4832    0.1177   -1.4413 C.ar    1  LIG1       -0.0159
     28 C           3.2726    1.5494   -2.0228 C.ar    1  LIG1        0.0221
     29 C           2.0515   -0.3811   -2.7403 C.ar    1  LIG1       -0.0194
     30 C          -5.6012    0.2443   -0.6462 C.ar    1  LIG1        0.1662
     31 C           3.0857    0.5242   -2.9465 C.ar    1  LIG1        0.1236
     32 C           2.3780   -4.4269    0.8798 C.3     1  LIG1        0.0893
     33 C          -7.5884    0.4349    0.1694 C.3     1  LIG1        0.2332
     34 C           4.0128    2.9173    0.4531 C.3     1  LIG1        0.1287
     35 C           3.6842   -4.3970    1.6642 C.3     1  LIG1       -0.0215
     36 C           4.6911    4.1813   -0.1365 C.2     1  LIG1        0.0789
     37 C           4.9748    1.1631   -4.2193 C.3     1  LIG1        0.0788
     38 C           4.8807   -4.6809    0.7743 C.3     1  LIG1       -0.0622
     39 H          -0.9262    1.6243   -0.4488 H       1  LIG1        0.0379
     40 H           1.3107    1.1000    1.5038 H       1  LIG1        0.0405
     41 H          -1.9473    0.7979    2.3113 H       1  LIG1        0.0404
     42 H           2.2064   -1.7112    1.1344 H       1  LIG1        0.0657
     43 H          -2.6812   -2.1376    2.0049 H       1  LIG1        0.0622
     44 H          -4.2299    0.7022    2.4137 H       1  LIG1        0.0658
     45 H          -2.3315    0.1024   -1.4309 H       1  LIG1        0.0622
     46 H          -1.2116   -4.1283    2.1988 H       1  LIG1        0.0654
     47 H           0.4467   -1.0108   -1.4745 H       1  LIG1        0.0623
     48 H          -4.5671   -0.0234   -2.5115 H       1  LIG1        0.0655
     49 H           4.0113    2.3196   -2.2017 H       1  LIG1        0.0691
     50 H           1.8689   -1.1677   -3.4650 H       1  LIG1        0.0654
     51 H           2.3848   -3.7213    0.0402 H       1  LIG1        0.0696
     52 H           2.2461   -5.4222    0.4382 H       1  LIG1        0.0696
     53 H          -8.1537    1.3704    0.0806 H       1  LIG1        0.1166
     54 H          -8.2971   -0.3844    0.3360 H       1  LIG1        0.1166
     55 H           4.6554    2.0455    0.2778 H       1  LIG1        0.0760
     56 H           3.9430    3.0433    1.5399 H       1  LIG1        0.0760
     57 H           3.6413   -5.1361    2.4735 H       1  LIG1        0.0295
     58 H           3.8049   -3.4232    2.1520 H       1  LIG1        0.0295
     59 H           5.5245    0.8308   -5.1054 H       1  LIG1        0.0660
     60 H           5.6499    1.0678   -3.3612 H       1  LIG1        0.0660
     61 H           4.6807    2.2047   -4.3834 H       1  LIG1        0.0660
     62 H           4.7944   -5.6657    0.3037 H       1  LIG1        0.0231
     63 H           5.8031   -4.6665    1.3631 H       1  LIG1        0.0231
     64 H           4.9685   -3.9287   -0.0158 H       1  LIG1        0.0231
@<TRIPOS>BOND
     1     1    17   ar
     2     2    17   ar
     3     3    20    1
     4     3    32    1
     5     4    21    1
     6     4    34    1
     7     5    26    1
     8     5    33    1
     9     6    30    1
    10     6    33    1
    11     7    31    1
    12     7    37    1
    13     8    36   ar
    14     9    36   ar
    15    10    11    1
    16    10    12    1
    17    10    17    1
    18    11    13    1
    19    11    16    1
    20    12    14    1
    21    12    15    1
    22    13    14   ar
    23    13    18   ar
    24    14    19   ar
    25    15    22   ar
    26    15    23   ar
    27    16    21   ar
    28    16    25   ar
    29    18    20   ar
    30    19    24   ar
    31    20    24   ar
    32    21    28   ar
    33    22    26   ar
    34    23    27   ar
    35    25    29   ar
    36    26    30   ar
    37    27    30   ar
    38    28    31   ar
    39    29    31   ar
    40    32    35    1
    41    34    36    1
    42    35    38    1
    43    10    39    1
    44    11    40    1
    45    12    41    1
    46    18    42    1
    47    19    43    1
    48    22    44    1
    49    23    45    1
    50    24    46    1
    51    25    47    1
    52    27    48    1
    53    28    49    1
    54    29    50    1
    55    32    51    1
    56    32    52    1
    57    33    53    1
    58    33    54    1
    59    34    55    1
    60    34    56    1
    61    35    57    1
    62    35    58    1
    63    37    59    1
    64    37    60    1
    65    37    61    1
    66    38    62    1
    67    38    63    1
    68    38    64    1
@<TRIPOS>MOLECULE
108002
 64 68 0 0 0
SMALL
GASTEIGER

@<TRIPOS>ATOM
      1 O          -0.2285    2.6778    2.5146 O.co2   1  LIG1       -0.5495
      2 O          -1.5964    3.5472    0.9139 O.co2   1  LIG1       -0.5495
      3 O           1.1589   -4.2250    1.7154 O.3     1  LIG1       -0.4920
      4 O           2.5495    2.6743    0.0013 O.3     1  LIG1       -0.4858
      5 O          -4.8666    0.1094   -2.6841 O.3     1  LIG1       -0.4526
      6 O          -6.8374    0.4410   -1.3328 O.3     1  LIG1       -0.4526
      7 O           3.8825    0.3059   -4.0308 O.3     1  LIG1       -0.4950
      8 O           4.1578    4.5466   -1.3224 O.co2   1  LIG1       -0.5463
      9 O           5.7698    4.3704    0.2678 O.co2   1  LIG1       -0.5463
     10 C          -0.7068    1.3885    0.5683 C.3     1  LIG1        0.0203
     11 C           0.6328    0.6189    0.6918 C.3     1  LIG1        0.0218
     12 C          -1.8192    0.5505    1.2615 C.3     1  LIG1        0.0184
     13 C           0.1782   -0.7748    1.1238 C.ar    1  LIG1       -0.0320
     14 C          -1.1874   -0.8112    1.3959 C.ar    1  LIG1       -0.0353
     15 C          -3.1726    0.5173    0.5587 C.ar    1  LIG1       -0.0356
     16 C           1.4574    0.6260   -0.6052 C.ar    1  LIG1        0.0026
     17 C          -0.8107    2.6755    1.3918 C.2     1  LIG1        0.0466
     18 C           0.9490   -1.9293    1.2732 C.ar    1  LIG1       -0.0159
     19 C          -1.7998   -1.9781    1.8348 C.ar    1  LIG1       -0.0542
     20 C           0.3345   -3.1276    1.6639 C.ar    1  LIG1        0.1208
     21 C           2.4479    1.5983   -0.8445 C.ar    1  LIG1        0.1283
     22 C          -3.2980    0.2901   -0.8219 C.ar    1  LIG1       -0.0124
     23 C          -4.3447    0.7028    1.3370 C.ar    1  LIG1       -0.0543
     24 C          -1.0362   -3.1388    1.9615 C.ar    1  LIG1       -0.0196
     25 C           1.2748   -0.3675   -1.5898 C.ar    1  LIG1       -0.0510
     26 C          -4.5655    0.2872   -1.3678 C.ar    1  LIG1        0.1665
     27 C          -5.6167    0.6756    0.7605 C.ar    1  LIG1       -0.0159
     28 C           3.2537    1.5284   -1.9923 C.ar    1  LIG1        0.0221
     29 C           2.1039   -0.4441   -2.7145 C.ar    1  LIG1       -0.0194
     30 C          -5.6916    0.4748   -0.5981 C.ar    1  LIG1        0.1662
     31 C           3.1142    0.4912   -2.9103 C.ar    1  LIG1        0.1236
     32 C           0.5266   -5.4775    1.9796 C.3     1  LIG1        0.0893
     33 C          -6.2891    0.3260   -2.6609 C.3     1  LIG1        0.2332
     34 C           3.8869    2.9472    0.4832 C.3     1  LIG1        0.1287
     35 C           1.5403   -6.5954    1.7557 C.3     1  LIG1       -0.0215
     36 C           4.6464    4.0768   -0.2576 C.2     1  LIG1        0.0789
     37 C           5.0061    1.1749   -4.1554 C.3     1  LIG1        0.0788
     38 C           0.9447   -7.9583    2.0676 C.3     1  LIG1       -0.0622
     39 H          -0.9333    1.6191   -0.4796 H       1  LIG1        0.0379
     40 H           1.2613    1.0046    1.5035 H       1  LIG1        0.0405
     41 H          -1.9892    0.8865    2.2952 H       1  LIG1        0.0404
     42 H           2.0144   -1.9012    1.0628 H       1  LIG1        0.0657
     43 H          -2.8566   -1.9851    2.0811 H       1  LIG1        0.0622
     44 H          -2.4259    0.1458   -1.4502 H       1  LIG1        0.0658
     45 H          -4.2505    0.8934    2.4050 H       1  LIG1        0.0622
     46 H          -1.5426   -4.0329    2.3041 H       1  LIG1        0.0654
     47 H           0.4930   -1.1142   -1.4771 H       1  LIG1        0.0623
     48 H          -6.5046    0.8322    1.3592 H       1  LIG1        0.0655
     49 H           3.9677    2.3235   -2.1653 H       1  LIG1        0.0691
     50 H           1.9591   -1.2416   -3.4360 H       1  LIG1        0.0654
     51 H          -0.3184   -5.6367    1.2981 H       1  LIG1        0.0696
     52 H           0.1780   -5.4988    3.0193 H       1  LIG1        0.0696
     53 H          -6.7785   -0.5137   -3.1665 H       1  LIG1        0.1166
     54 H          -6.5165    1.2455   -3.2144 H       1  LIG1        0.1166
     55 H           4.4972    2.0356    0.4959 H       1  LIG1        0.0760
     56 H           3.7695    3.2702    1.5244 H       1  LIG1        0.0760
     57 H           2.4288   -6.4240    2.3742 H       1  LIG1        0.0295
     58 H           1.8844   -6.5709    0.7147 H       1  LIG1        0.0295
     59 H           5.5777    0.8550   -5.0323 H       1  LIG1        0.0660
     60 H           5.6697    1.0989   -3.2867 H       1  LIG1        0.0660
     61 H           4.6884    2.2085   -4.3270 H       1  LIG1        0.0660
     62 H           0.6598   -8.0282    3.1225 H       1  LIG1        0.0231
     63 H           1.6717   -8.7492    1.8591 H       1  LIG1        0.0231
     64 H           0.0536   -8.1477    1.4600 H       1  LIG1        0.0231
@<TRIPOS>BOND
     1     1    17   ar
     2     2    17   ar
     3     3    20    1
     4     3    32    1
     5     4    21    1
     6     4    34    1
     7     5    26    1
     8     5    33    1
     9     6    30    1
    10     6    33    1
    11     7    31    1
    12     7    37    1
    13     8    36   ar
    14     9    36   ar
    15    10    11    1
    16    10    12    1
    17    10    17    1
    18    11    13    1
    19    11    16    1
    20    12    14    1
    21    12    15    1
    22    13    14   ar
    23    13    18   ar
    24    14    19   ar
    25    15    22   ar
    26    15    23   ar
    27    16    21   ar
    28    16    25   ar
    29    18    20   ar
    30    19    24   ar
    31    20    24   ar
    32    21    28   ar
    33    22    26   ar
    34    23    27   ar
    35    25    29   ar
    36    26    30   ar
    37    27    30   ar
    38    28    31   ar
    39    29    31   ar
    40    32    35    1
    41    34    36    1
    42    35    38    1
    43    10    39    1
    44    11    40    1
    45    12    41    1
    46    18    42    1
    47    19    43    1
    48    22    44    1
    49    23    45    1
    50    24    46    1
    51    25    47    1
    52    27    48    1
    53    28    49    1
    54    29    50    1
    55    32    51    1
    56    32    52    1
    57    33    53    1
    58    33    54    1
    59    34    55    1
    60    34    56    1
    61    35    57    1
    62    35    58    1
    63    37    59    1
    64    37    60    1
    65    37    61    1
    66    38    62    1
    67    38    63    1
    68    38    64    1
@<TRIPOS>MOLECULE
108002
 64 68 0 0 0
SMALL
GASTEIGER

@<TRIPOS>ATOM
      1 O          -0.6884    2.8551    2.2290 O.co2   1  LIG1       -0.5495
      2 O          -1.6201    3.4961    0.2480 O.co2   1  LIG1       -0.5495
      3 O           1.3608   -4.1768    1.7893 O.3     1  LIG1       -0.4920
      4 O           2.9593    2.3997    0.2619 O.3     1  LIG1       -0.4858
      5 O          -6.7812    0.4790    1.3933 O.3     1  LIG1       -0.4526
      6 O          -7.0298    0.1018   -0.9779 O.3     1  LIG1       -0.4526
      7 O           4.0262    0.4743   -3.9231 O.3     1  LIG1       -0.4950
      8 O           4.9064    4.0268    1.2669 O.co2   1  LIG1       -0.5463
      9 O           3.9793    5.8822    0.3232 O.co2   1  LIG1       -0.5463
     10 C          -0.7910    1.3046    0.4309 C.3     1  LIG1        0.0203
     11 C           0.6155    0.7037    0.6842 C.3     1  LIG1        0.0218
     12 C          -1.8271    0.4366    1.1949 C.3     1  LIG1        0.0184
     13 C           0.2724   -0.7169    1.1303 C.ar    1  LIG1       -0.0320
     14 C          -1.0995   -0.8776    1.3414 C.ar    1  LIG1       -0.0353
     15 C          -3.1988    0.3173    0.5432 C.ar    1  LIG1       -0.0356
     16 C           1.4827    0.7041   -0.5837 C.ar    1  LIG1        0.0026
     17 C          -1.0188    2.6918    1.0233 C.2     1  LIG1        0.0466
     18 C           1.1452   -1.7899    1.3070 C.ar    1  LIG1       -0.0159
     19 C          -1.6236   -2.1021    1.7369 C.ar    1  LIG1       -0.0542
     20 C           0.6137   -3.0407    1.6349 C.ar    1  LIG1        0.1208
     21 C           2.6028    1.5344   -0.7371 C.ar    1  LIG1        0.1283
     22 C          -4.3445    0.4570    1.3509 C.ar    1  LIG1       -0.0124
     23 C          -3.3618    0.0688   -0.8400 C.ar    1  LIG1       -0.0543
     24 C          -0.7591   -3.1878    1.8750 C.ar    1  LIG1       -0.0196
     25 C           1.1715   -0.1732   -1.6463 C.ar    1  LIG1       -0.0510
     26 C          -5.5834    0.3647    0.7572 C.ar    1  LIG1        0.1665
     27 C          -4.6342   -0.0110   -1.4181 C.ar    1  LIG1       -0.0159
     28 C           3.4339    1.4015   -1.8624 C.ar    1  LIG1        0.0221
     29 C           1.9851   -0.2777   -2.7799 C.ar    1  LIG1       -0.0194
     30 C          -5.7241    0.1436   -0.5923 C.ar    1  LIG1        0.1662
     31 C           3.1323    0.5012   -2.8857 C.ar    1  LIG1        0.1236
     32 C           2.3632   -4.3822    0.7910 C.3     1  LIG1        0.0893
     33 C          -7.6820    0.3915    0.2747 C.3     1  LIG1        0.2332
     34 C           2.9883    3.7864   -0.1884 C.3     1  LIG1        0.1287
     35 C           2.1369   -5.7421    0.1287 C.3     1  LIG1       -0.0215
     36 C           4.0439    4.6353    0.5636 C.2     1  LIG1        0.0789
     37 C           3.7789   -0.4701   -4.9533 C.3     1  LIG1        0.0788
     38 C           2.1502   -6.8990    1.1174 C.3     1  LIG1       -0.0622
     39 H          -0.9982    1.3491   -0.6443 H       1  LIG1        0.0379
     40 H           1.1392    1.1985    1.5101 H       1  LIG1        0.0405
     41 H          -1.9705    0.8015    2.2212 H       1  LIG1        0.0404
     42 H           2.2111   -1.6371    1.1746 H       1  LIG1        0.0657
     43 H          -2.6841   -2.2133    1.9361 H       1  LIG1        0.0622
     44 H          -4.2551    0.6557    2.4143 H       1  LIG1        0.0658
     45 H          -2.4872   -0.0388   -1.4772 H       1  LIG1        0.0622
     46 H          -1.1527   -4.1552    2.1693 H       1  LIG1        0.0654
     47 H           0.2905   -0.8075   -1.5797 H       1  LIG1        0.0623
     48 H          -4.7516   -0.1694   -2.4828 H       1  LIG1        0.0655
     49 H           4.3370    2.0034   -1.9269 H       1  LIG1        0.0691
     50 H           1.6946   -0.9857   -3.5459 H       1  LIG1        0.0654
     51 H           3.3406   -4.3587    1.2855 H       1  LIG1        0.0696
     52 H           2.3619   -3.6193    0.0029 H       1  LIG1        0.0696
     53 H          -8.2190    1.3434    0.1810 H       1  LIG1        0.1166
     54 H          -8.4118   -0.4005    0.4767 H       1  LIG1        0.1166
     55 H           1.9898    4.2122   -0.0259 H       1  LIG1        0.0760
     56 H           3.2278    3.8789   -1.2531 H       1  LIG1        0.0760
     57 H           2.9063   -5.9063   -0.6331 H       1  LIG1        0.0295
     58 H           1.1645   -5.7379   -0.3797 H       1  LIG1        0.0295
     59 H           4.5739   -0.3686   -5.6988 H       1  LIG1        0.0660
     60 H           2.8271   -0.2718   -5.4567 H       1  LIG1        0.0660
     61 H           3.8162   -1.4948   -4.5672 H       1  LIG1        0.0660
     62 H           3.0980   -6.9387    1.6626 H       1  LIG1        0.0231
     63 H           2.0230   -7.8481    0.5864 H       1  LIG1        0.0231
     64 H           1.3362   -6.8129    1.8441 H       1  LIG1        0.0231
@<TRIPOS>BOND
     1     1    17   ar
     2     2    17   ar
     3     3    20    1
     4     3    32    1
     5     4    21    1
     6     4    34    1
     7     5    26    1
     8     5    33    1
     9     6    30    1
    10     6    33    1
    11     7    31    1
    12     7    37    1
    13     8    36   ar
    14     9    36   ar
    15    10    11    1
    16    10    12    1
    17    10    17    1
    18    11    13    1
    19    11    16    1
    20    12    14    1
    21    12    15    1
    22    13    14   ar
    23    13    18   ar
    24    14    19   ar
    25    15    22   ar
    26    15    23   ar
    27    16    21   ar
    28    16    25   ar
    29    18    20   ar
    30    19    24   ar
    31    20    24   ar
    32    21    28   ar
    33    22    26   ar
    34    23    27   ar
    35    25    29   ar
    36    26    30   ar
    37    27    30   ar
    38    28    31   ar
    39    29    31   ar
    40    32    35    1
    41    34    36    1
    42    35    38    1
    43    10    39    1
    44    11    40    1
    45    12    41    1
    46    18    42    1
    47    19    43    1
    48    22    44    1
    49    23    45    1
    50    24    46    1
    51    25    47    1
    52    27    48    1
    53    28    49    1
    54    29    50    1
    55    32    51    1
    56    32    52    1
    57    33    53    1
    58    33    54    1
    59    34    55    1
    60    34    56    1
    61    35    57    1
    62    35    58    1
    63    37    59    1
    64    37    60    1
    65    37    61    1
    66    38    62    1
    67    38    63    1
    68    38    64    1
@<TRIPOS>MOLECULE
108002
 64 68 0 0 0
SMALL
GASTEIGER

@<TRIPOS>ATOM
      1 O          -0.2779    2.6643    2.6133 O.co2   1  LIG1       -0.5495
      2 O          -1.6577    3.5434    1.0272 O.co2   1  LIG1       -0.5495
      3 O           1.3190   -4.2030    1.6745 O.3     1  LIG1       -0.4920
      4 O           2.6001    2.7690   -0.0359 O.3     1  LIG1       -0.4858
      5 O          -6.7313    0.5176    1.3297 O.3     1  LIG1       -0.4526
      6 O          -6.8940    0.1824   -1.0554 O.3     1  LIG1       -0.4526
      7 O           3.4839    0.6038   -4.2954 O.3     1  LIG1       -0.4950
      8 O           4.5335    4.4651   -1.4472 O.co2   1  LIG1       -0.5463
      9 O           5.3060    4.9206    0.6417 O.co2   1  LIG1       -0.5463
     10 C          -0.7144    1.4195    0.6324 C.3     1  LIG1        0.0203
     11 C           0.6680    0.7240    0.7117 C.3     1  LIG1        0.0218
     12 C          -1.7722    0.5007    1.3066 C.3     1  LIG1        0.0184
     13 C           0.3027   -0.6924    1.1463 C.ar    1  LIG1       -0.0320
     14 C          -1.0610   -0.8251    1.4077 C.ar    1  LIG1       -0.0353
     15 C          -3.1206    0.4113    0.6003 C.ar    1  LIG1       -0.0356
     16 C           1.4213    0.7579   -0.6293 C.ar    1  LIG1        0.0026
     17 C          -0.8594    2.6765    1.4901 C.2     1  LIG1        0.0466
     18 C           1.1535   -1.7936    1.2666 C.ar    1  LIG1       -0.0159
     19 C          -1.6006   -2.0449    1.7989 C.ar    1  LIG1       -0.0542
     20 C           0.6038   -3.0376    1.5918 C.ar    1  LIG1        0.1208
     21 C           2.3968    1.7317   -0.9120 C.ar    1  LIG1        0.1283
     22 C          -4.2944    0.5262    1.3700 C.ar    1  LIG1       -0.0124
     23 C          -3.2305    0.1962   -0.7932 C.ar    1  LIG1       -0.0543
     24 C          -0.7614   -3.1545    1.8833 C.ar    1  LIG1       -0.0196
     25 C           1.1629   -0.2112   -1.6245 C.ar    1  LIG1       -0.0510
     26 C          -5.5117    0.4336    0.7315 C.ar    1  LIG1        0.1665
     27 C          -4.4816    0.1151   -1.4166 C.ar    1  LIG1       -0.0159
     28 C           3.0863    1.7096   -2.1347 C.ar    1  LIG1        0.0221
     29 C           1.8825   -0.2429   -2.8227 C.ar    1  LIG1       -0.0194
     30 C          -5.6030    0.2374   -0.6258 C.ar    1  LIG1        0.1662
     31 C           2.8498    0.7199   -3.0854 C.ar    1  LIG1        0.1236
     32 C           2.3214   -4.3593    0.6661 C.3     1  LIG1        0.0893
     33 C          -7.5936    0.4257    0.1817 C.3     1  LIG1        0.2332
     34 C           3.9798    2.9620    0.3606 C.3     1  LIG1        0.1287
     35 C           2.2682   -5.8117    0.1970 C.3     1  LIG1       -0.0215
     36 C           4.6240    4.2556   -0.1996 C.2     1  LIG1        0.0789
     37 C           4.3498    1.6832   -4.6410 C.3     1  LIG1        0.0788
     38 C           3.3346   -6.1179   -0.8381 C.3     1  LIG1       -0.0622
     39 H          -0.9676    1.6764   -0.4032 H       1  LIG1        0.0379
     40 H           1.3107    1.1446    1.4937 H       1  LIG1        0.0405
     41 H          -1.9607    0.8022    2.3475 H       1  LIG1        0.0404
     42 H           2.2155   -1.6682    1.0841 H       1  LIG1        0.0657
     43 H          -2.6565   -2.1330    2.0317 H       1  LIG1        0.0622
     44 H          -4.2449    0.7025    2.4396 H       1  LIG1        0.0658
     45 H          -2.3300    0.1105   -1.3980 H       1  LIG1        0.0622
     46 H          -1.1709   -4.1184    2.1685 H       1  LIG1        0.0654
     47 H           0.3961   -0.9656   -1.4678 H       1  LIG1        0.0623
     48 H          -4.5609   -0.0263   -2.4869 H       1  LIG1        0.0655
     49 H           3.7957    2.5026   -2.3313 H       1  LIG1        0.0691
     50 H           1.6742   -1.0142   -3.5568 H       1  LIG1        0.0654
     51 H           3.2968   -4.1339    1.1111 H       1  LIG1        0.0696
     52 H           2.1615   -3.7050   -0.2002 H       1  LIG1        0.0696
     53 H          -8.1573    1.3617    0.0899 H       1  LIG1        0.1166
     54 H          -8.3038   -0.3928    0.3451 H       1  LIG1        0.1166
     55 H           4.6120    2.1029    0.1045 H       1  LIG1        0.0760
     56 H           3.9689    3.0300    1.4547 H       1  LIG1        0.0760
     57 H           1.2763   -6.0174   -0.2248 H       1  LIG1        0.0295
     58 H           2.3743   -6.4863    1.0550 H       1  LIG1        0.0295
     59 H           4.7373    1.4877   -5.6457 H       1  LIG1        0.0660
     60 H           5.2076    1.7370   -3.9621 H       1  LIG1        0.0660
     61 H           3.8056    2.6331   -4.6764 H       1  LIG1        0.0660
     62 H           3.2450   -5.4545   -1.7042 H       1  LIG1        0.0231
     63 H           3.2358   -7.1498   -1.1897 H       1  LIG1        0.0231
     64 H           4.3361   -5.9979   -0.4136 H       1  LIG1        0.0231
@<TRIPOS>BOND
     1     1    17   ar
     2     2    17   ar
     3     3    20    1
     4     3    32    1
     5     4    21    1
     6     4    34    1
     7     5    26    1
     8     5    33    1
     9     6    30    1
    10     6    33    1
    11     7    31    1
    12     7    37    1
    13     8    36   ar
    14     9    36   ar
    15    10    11    1
    16    10    12    1
    17    10    17    1
    18    11    13    1
    19    11    16    1
    20    12    14    1
    21    12    15    1
    22    13    14   ar
    23    13    18   ar
    24    14    19   ar
    25    15    22   ar
    26    15    23   ar
    27    16    21   ar
    28    16    25   ar
    29    18    20   ar
    30    19    24   ar
    31    20    24   ar
    32    21    28   ar
    33    22    26   ar
    34    23    27   ar
    35    25    29   ar
    36    26    30   ar
    37    27    30   ar
    38    28    31   ar
    39    29    31   ar
    40    32    35    1
    41    34    36    1
    42    35    38    1
    43    10    39    1
    44    11    40    1
    45    12    41    1
    46    18    42    1
    47    19    43    1
    48    22    44    1
    49    23    45    1
    50    24    46    1
    51    25    47    1
    52    27    48    1
    53    28    49    1
    54    29    50    1
    55    32    51    1
    56    32    52    1
    57    33    53    1
    58    33    54    1
    59    34    55    1
    60    34    56    1
    61    35    57    1
    62    35    58    1
    63    37    59    1
    64    37    60    1
    65    37    61    1
    66    38    62    1
    67    38    63    1
    68    38    64    1
@<TRIPOS>MOLECULE
108002
 64 68 0 0 0
SMALL
GASTEIGER

@<TRIPOS>ATOM
      1 O          -0.7132    2.8806    2.1899 O.co2   1  LIG1       -0.5495
      2 O          -1.5739    3.5014    0.1809 O.co2   1  LIG1       -0.5495
      3 O           1.3576   -4.1794    1.7789 O.3     1  LIG1       -0.4920
      4 O           2.9163    2.4437    0.2856 O.3     1  LIG1       -0.4858
      5 O          -6.7809    0.5038    1.4055 O.3     1  LIG1       -0.4526
      6 O          -7.0380    0.1078   -0.9623 O.3     1  LIG1       -0.4526
      7 O           3.7956    0.5308   -4.0841 O.3     1  LIG1       -0.4950
      8 O           4.8754    4.0541    1.2638 O.co2   1  LIG1       -0.5463
      9 O           3.9678    5.9153    0.3136 O.co2   1  LIG1       -0.5463
     10 C          -0.7941    1.2963    0.4150 C.3     1  LIG1        0.0203
     11 C           0.6114    0.7022    0.6817 C.3     1  LIG1        0.0218
     12 C          -1.8276    0.4373    1.1907 C.3     1  LIG1        0.0184
     13 C           0.2694   -0.7197    1.1221 C.ar    1  LIG1       -0.0320
     14 C          -1.1018   -0.8787    1.3368 C.ar    1  LIG1       -0.0353
     15 C          -3.2027    0.3199    0.5453 C.ar    1  LIG1       -0.0356
     16 C           1.4827    0.7201   -0.5815 C.ar    1  LIG1        0.0026
     17 C          -1.0151    2.6971    0.9767 C.2     1  LIG1        0.0466
     18 C           1.1424   -1.7926    1.2971 C.ar    1  LIG1       -0.0159
     19 C          -1.6264   -2.1024    1.7325 C.ar    1  LIG1       -0.0542
     20 C           0.6102   -3.0427    1.6257 C.ar    1  LIG1        0.1208
     21 C           2.5718    1.5927   -0.7333 C.ar    1  LIG1        0.1283
     22 C          -4.3437    0.4712    1.3558 C.ar    1  LIG1       -0.0124
     23 C          -3.3706    0.0599   -0.8352 C.ar    1  LIG1       -0.0543
     24 C          -0.7620   -3.1889    1.8681 C.ar    1  LIG1       -0.0196
     25 C           1.1984   -0.1610   -1.6477 C.ar    1  LIG1       -0.0510
     26 C          -5.5853    0.3797    0.7662 C.ar    1  LIG1        0.1665
     27 C          -4.6446   -0.0184   -1.4088 C.ar    1  LIG1       -0.0159
     28 C           3.3862    1.5294   -1.8771 C.ar    1  LIG1        0.0221
     29 C           1.9941   -0.2016   -2.7944 C.ar    1  LIG1       -0.0194
     30 C          -5.7324    0.1478   -0.5806 C.ar    1  LIG1        0.1662
     31 C           3.0835    0.6537   -2.9190 C.ar    1  LIG1        0.1236
     32 C           2.3558   -4.3850    0.7766 C.3     1  LIG1        0.0893
     33 C          -7.6861    0.4070    0.2912 C.3     1  LIG1        0.2332
     34 C           2.8919    3.8402   -0.1114 C.3     1  LIG1        0.1287
     35 C           2.1302   -5.7487    0.1205 C.3     1  LIG1       -0.0215
     36 C           3.9988    4.6695    0.5829 C.2     1  LIG1        0.0789
     37 C           4.4812    1.7114   -4.4859 C.3     1  LIG1        0.0788
     38 C           2.1495   -6.9017    1.1135 C.3     1  LIG1       -0.0622
     39 H          -1.0011    1.3227   -0.6588 H       1  LIG1        0.0379
     40 H           1.1255    1.1954    1.5140 H       1  LIG1        0.0405
     41 H          -1.9642    0.8075    2.2163 H       1  LIG1        0.0404
     42 H           2.2074   -1.6405    1.1622 H       1  LIG1        0.0657
     43 H          -2.6865   -2.2133    1.9330 H       1  LIG1        0.0622
     44 H          -4.2510    0.6801    2.4164 H       1  LIG1        0.0658
     45 H          -2.4989   -0.0586   -1.4740 H       1  LIG1        0.0622
     46 H          -1.1560   -4.1567    2.1614 H       1  LIG1        0.0654
     47 H           0.3475   -0.8360   -1.5812 H       1  LIG1        0.0623
     48 H          -4.7662   -0.1865   -2.4723 H       1  LIG1        0.0655
     49 H           4.2640    2.1666   -1.9100 H       1  LIG1        0.0691
     50 H           1.7552   -0.8976   -3.5906 H       1  LIG1        0.0654
     51 H           3.3359   -4.3566    1.2660 H       1  LIG1        0.0696
     52 H           2.3481   -3.6254   -0.0145 H       1  LIG1        0.0696
     53 H          -8.2239    1.3575    0.1914 H       1  LIG1        0.1166
     54 H          -8.4141   -0.3841    0.5019 H       1  LIG1        0.1166
     55 H           1.9133    4.2455    0.1506 H       1  LIG1        0.0760
     56 H           3.0362    3.9730   -1.1883 H       1  LIG1        0.0760
     57 H           2.8984   -5.9143   -0.6425 H       1  LIG1        0.0295
     58 H           1.1574   -5.7486   -0.3851 H       1  LIG1        0.0295
     59 H           4.8061    1.5680   -5.5219 H       1  LIG1        0.0660
     60 H           5.3774    1.8709   -3.8773 H       1  LIG1        0.0660
     61 H           3.8247    2.5873   -4.4634 H       1  LIG1        0.0660
     62 H           3.0985   -6.9354    1.6581 H       1  LIG1        0.0231
     63 H           2.0244   -7.8526    0.5876 H       1  LIG1        0.0231
     64 H           1.3365   -6.8143    1.8420 H       1  LIG1        0.0231
@<TRIPOS>BOND
     1     1    17   ar
     2     2    17   ar
     3     3    20    1
     4     3    32    1
     5     4    21    1
     6     4    34    1
     7     5    26    1
     8     5    33    1
     9     6    30    1
    10     6    33    1
    11     7    31    1
    12     7    37    1
    13     8    36   ar
    14     9    36   ar
    15    10    11    1
    16    10    12    1
    17    10    17    1
    18    11    13    1
    19    11    16    1
    20    12    14    1
    21    12    15    1
    22    13    14   ar
    23    13    18   ar
    24    14    19   ar
    25    15    22   ar
    26    15    23   ar
    27    16    21   ar
    28    16    25   ar
    29    18    20   ar
    30    19    24   ar
    31    20    24   ar
    32    21    28   ar
    33    22    26   ar
    34    23    27   ar
    35    25    29   ar
    36    26    30   ar
    37    27    30   ar
    38    28    31   ar
    39    29    31   ar
    40    32    35    1
    41    34    36    1
    42    35    38    1
    43    10    39    1
    44    11    40    1
    45    12    41    1
    46    18    42    1
    47    19    43    1
    48    22    44    1
    49    23    45    1
    50    24    46    1
    51    25    47    1
    52    27    48    1
    53    28    49    1
    54    29    50    1
    55    32    51    1
    56    32    52    1
    57    33    53    1
    58    33    54    1
    59    34    55    1
    60    34    56    1
    61    35    57    1
    62    35    58    1
    63    37    59    1
    64    37    60    1
    65    37    61    1
    66    38    62    1
    67    38    63    1
    68    38    64    1
@<TRIPOS>MOLECULE
108002
 64 68 0 0 0
SMALL
GASTEIGER

@<TRIPOS>ATOM
      1 O           0.0859    2.8587    2.0726 O.co2   1  LIG1       -0.5495
      2 O          -1.3337    3.5422    0.4409 O.co2   1  LIG1       -0.5495
      3 O           1.2839   -4.1914    2.3083 O.3     1  LIG1       -0.4920
      4 O           0.2630   -1.1909   -1.7305 O.3     1  LIG1       -0.4858
      5 O          -5.2497   -1.3273   -1.7375 O.3     1  LIG1       -0.4526
      6 O          -6.8149    0.4078   -1.1437 O.3     1  LIG1       -0.4526
      7 O           3.9768    1.0798   -4.0030 O.3     1  LIG1       -0.4950
      8 O           0.0163   -4.3625   -2.1072 O.co2   1  LIG1       -0.5463
      9 O          -1.9040   -3.3152   -2.7606 O.co2   1  LIG1       -0.5463
     10 C          -0.6794    1.2645    0.4653 C.3     1  LIG1        0.0203
     11 C           0.6688    0.5264    0.6213 C.3     1  LIG1        0.0218
     12 C          -1.7247    0.5007    1.3144 C.3     1  LIG1        0.0184
     13 C           0.2765   -0.8174    1.1762 C.ar    1  LIG1       -0.0320
     14 C          -1.0643   -0.8386    1.5580 C.ar    1  LIG1       -0.0353
     15 C          -3.0981    0.4629    0.6545 C.ar    1  LIG1       -0.0356
     16 C           1.5050    0.5435   -0.6550 C.ar    1  LIG1        0.0026
     17 C          -0.6283    2.6812    1.0421 C.2     1  LIG1        0.0466
     18 C           1.1099   -1.9075    1.4056 C.ar    1  LIG1       -0.0159
     19 C          -1.6028   -1.9715    2.1521 C.ar    1  LIG1       -0.0542
     20 C           0.5833   -3.0507    2.0075 C.ar    1  LIG1        0.1208
     21 C           1.2690   -0.2525   -1.7949 C.ar    1  LIG1        0.1283
     22 C          -3.4603   -0.5114   -0.2931 C.ar    1  LIG1       -0.0124
     23 C          -4.0260    1.4861    0.9763 C.ar    1  LIG1       -0.0543
     24 C          -0.7760   -3.0817    2.3583 C.ar    1  LIG1       -0.0196
     25 C           2.5595    1.4807   -0.6955 C.ar    1  LIG1       -0.0510
     26 C          -4.7297   -0.4545   -0.8331 C.ar    1  LIG1        0.1665
     27 C          -5.3013    1.5241    0.4050 C.ar    1  LIG1       -0.0159
     28 C           2.0659   -0.0607   -2.9406 C.ar    1  LIG1        0.0221
     29 C           3.3688    1.6189   -1.8221 C.ar    1  LIG1       -0.0194
     30 C          -5.6251    0.5331   -0.4923 C.ar    1  LIG1        0.1662
     31 C           3.1246    0.8510   -2.9537 C.ar    1  LIG1        0.1236
     32 C           2.7068   -4.1247    2.2267 C.3     1  LIG1        0.0893
     33 C          -6.5455   -0.7546   -1.9560 C.3     1  LIG1        0.2332
     34 C           0.1476   -2.1041   -2.8407 C.3     1  LIG1        0.1287
     35 C           3.2121   -4.4913    0.8328 C.3     1  LIG1       -0.0215
     36 C          -0.6691   -3.3611   -2.4813 C.2     1  LIG1        0.0789
     37 C           3.7827    0.2762   -5.1601 C.3     1  LIG1        0.0788
     38 C           4.7211   -4.3401    0.7367 C.3     1  LIG1       -0.0622
     39 H          -0.9811    1.3143   -0.5900 H       1  LIG1        0.0379
     40 H           1.2801    0.9706    1.4179 H       1  LIG1        0.0405
     41 H          -1.8411    0.9540    2.3099 H       1  LIG1        0.0404
     42 H           2.1422   -1.8343    1.0904 H       1  LIG1        0.0657
     43 H          -2.6475   -2.0018    2.4408 H       1  LIG1        0.0622
     44 H          -2.7683   -1.2893   -0.6111 H       1  LIG1        0.0658
     45 H          -3.7251    2.2811    1.6587 H       1  LIG1        0.0622
     46 H          -1.1919   -3.9827    2.7983 H       1  LIG1        0.0654
     47 H           2.7403    2.1235    0.1656 H       1  LIG1        0.0623
     48 H          -5.9959    2.3175    0.6471 H       1  LIG1        0.0655
     49 H           1.8474   -0.6277   -3.8344 H       1  LIG1        0.0691
     50 H           4.1765    2.3435   -1.8167 H       1  LIG1        0.0654
     51 H           3.0872   -4.8676    2.9385 H       1  LIG1        0.0696
     52 H           3.0943   -3.1612    2.5802 H       1  LIG1        0.0696
     53 H          -7.3058   -1.5130   -1.7362 H       1  LIG1        0.1166
     54 H          -6.6343   -0.4709   -3.0114 H       1  LIG1        0.1166
     55 H           1.1327   -2.4704   -3.1546 H       1  LIG1        0.0760
     56 H          -0.3374   -1.5868   -3.6773 H       1  LIG1        0.0760
     57 H           2.7338   -3.8715    0.0671 H       1  LIG1        0.0295
     58 H           2.9245   -5.5236    0.6014 H       1  LIG1        0.0295
     59 H           4.5620    0.5379   -5.8824 H       1  LIG1        0.0660
     60 H           2.8145    0.4861   -5.6267 H       1  LIG1        0.0660
     61 H           3.8917   -0.7892   -4.9301 H       1  LIG1        0.0660
     62 H           5.0231   -3.3059    0.9331 H       1  LIG1        0.0231
     63 H           5.0685   -4.6091   -0.2654 H       1  LIG1        0.0231
     64 H           5.2281   -4.9879    1.4589 H       1  LIG1        0.0231
@<TRIPOS>BOND
     1     1    17   ar
     2     2    17   ar
     3     3    20    1
     4     3    32    1
     5     4    21    1
     6     4    34    1
     7     5    26    1
     8     5    33    1
     9     6    30    1
    10     6    33    1
    11     7    31    1
    12     7    37    1
    13     8    36   ar
    14     9    36   ar
    15    10    11    1
    16    10    12    1
    17    10    17    1
    18    11    13    1
    19    11    16    1
    20    12    14    1
    21    12    15    1
    22    13    14   ar
    23    13    18   ar
    24    14    19   ar
    25    15    22   ar
    26    15    23   ar
    27    16    21   ar
    28    16    25   ar
    29    18    20   ar
    30    19    24   ar
    31    20    24   ar
    32    21    28   ar
    33    22    26   ar
    34    23    27   ar
    35    25    29   ar
    36    26    30   ar
    37    27    30   ar
    38    28    31   ar
    39    29    31   ar
    40    32    35    1
    41    34    36    1
    42    35    38    1
    43    10    39    1
    44    11    40    1
    45    12    41    1
    46    18    42    1
    47    19    43    1
    48    22    44    1
    49    23    45    1
    50    24    46    1
    51    25    47    1
    52    27    48    1
    53    28    49    1
    54    29    50    1
    55    32    51    1
    56    32    52    1
    57    33    53    1
    58    33    54    1
    59    34    55    1
    60    34    56    1
    61    35    57    1
    62    35    58    1
    63    37    59    1
    64    37    60    1
    65    37    61    1
    66    38    62    1
    67    38    63    1
    68    38    64    1
@<TRIPOS>MOLECULE
108002
 64 68 0 0 0
SMALL
GASTEIGER

@<TRIPOS>ATOM
      1 O           0.7603    3.1252    1.5202 O.co2   1  LIG1       -0.5495
      2 O          -1.4678    3.2129    1.9205 O.co2   1  LIG1       -0.5495
      3 O           1.1464   -4.2576    1.9196 O.3     1  LIG1       -0.4920
      4 O          -0.1627   -0.2899   -2.1030 O.3     1  LIG1       -0.4858
      5 O          -4.9882    0.2623   -2.5068 O.3     1  LIG1       -0.4526
      6 O          -6.8882    0.5042   -1.0450 O.3     1  LIG1       -0.4526
      7 O           4.1441    0.5842   -3.9689 O.3     1  LIG1       -0.4950
      8 O          -1.7176    0.2440   -4.5125 O.co2   1  LIG1       -0.5463
      9 O          -0.1927   -1.1446   -5.4860 O.co2   1  LIG1       -0.5463
     10 C          -0.6338    1.4140    0.5877 C.3     1  LIG1        0.0203
     11 C           0.6642    0.5679    0.5616 C.3     1  LIG1        0.0218
     12 C          -1.7322    0.5507    1.2763 C.3     1  LIG1        0.0184
     13 C           0.2112   -0.8238    0.9441 C.ar    1  LIG1       -0.0320
     14 C          -1.1259   -0.8361    1.3308 C.ar    1  LIG1       -0.0353
     15 C          -3.1207    0.5698    0.6494 C.ar    1  LIG1       -0.0356
     16 C           1.5167    0.6356   -0.7031 C.ar    1  LIG1        0.0026
     17 C          -0.4275    2.6990    1.4123 C.2     1  LIG1        0.0466
     18 C           1.0067   -1.9600    1.0730 C.ar    1  LIG1       -0.0159
     19 C          -1.7067   -2.0002    1.8200 C.ar    1  LIG1       -0.0542
     20 C           0.4489   -3.1125    1.6292 C.ar    1  LIG1        0.1208
     21 C           1.1271    0.1467   -1.9659 C.ar    1  LIG1        0.1283
     22 C          -3.3244    0.4117   -0.7309 C.ar    1  LIG1       -0.0124
     23 C          -4.2517    0.7050    1.4959 C.ar    1  LIG1       -0.0543
     24 C          -0.9135   -3.1424    1.9591 C.ar    1  LIG1       -0.0196
     25 C           2.8100    1.1805   -0.5685 C.ar    1  LIG1       -0.0510
     26 C          -4.6200    0.4036   -1.2058 C.ar    1  LIG1        0.1665
     27 C          -5.5550    0.6850    0.9878 C.ar    1  LIG1       -0.0159
     28 C           2.0444    0.1677   -3.0280 C.ar    1  LIG1        0.0221
     29 C           3.7162    1.1880   -1.6303 C.ar    1  LIG1       -0.0194
     30 C          -5.7046    0.5367   -0.3716 C.ar    1  LIG1        0.1662
     31 C           3.3435    0.6570   -2.8595 C.ar    1  LIG1        0.1236
     32 C           2.5294   -4.0635    2.2288 C.3     1  LIG1        0.0893
     33 C          -6.4095    0.4090   -2.4054 C.3     1  LIG1        0.2332
     34 C          -0.4460   -1.2607   -3.1319 C.3     1  LIG1        0.1287
     35 C           2.9196   -5.0879    3.2919 C.3     1  LIG1       -0.0215
     36 C          -0.8111   -0.6356   -4.4970 C.2     1  LIG1        0.0789
     37 C           5.5326    0.7858   -3.7583 C.3     1  LIG1        0.0788
     38 C           4.3847   -4.9765    3.6746 C.3     1  LIG1       -0.0622
     39 H          -0.9237    1.7335   -0.4196 H       1  LIG1        0.0379
     40 H           1.3035    0.8522    1.4100 H       1  LIG1        0.0405
     41 H          -1.8289    0.8528    2.3292 H       1  LIG1        0.0404
     42 H           2.0460   -1.9098    0.7709 H       1  LIG1        0.0657
     43 H          -2.7479   -2.0124    2.1220 H       1  LIG1        0.0622
     44 H          -2.4962    0.3068   -1.4248 H       1  LIG1        0.0658
     45 H          -4.1011    0.8416    2.5651 H       1  LIG1        0.0622
     46 H          -1.3479   -4.0494    2.3678 H       1  LIG1        0.0654
     47 H           3.1077    1.6179    0.3839 H       1  LIG1        0.0623
     48 H          -6.4117    0.7948    1.6395 H       1  LIG1        0.0655
     49 H           1.7618   -0.1871   -4.0150 H       1  LIG1        0.0691
     50 H           4.6907    1.6292   -1.4635 H       1  LIG1        0.0654
     51 H           2.7327   -3.0637    2.6321 H       1  LIG1        0.0696
     52 H           3.1171   -4.2137    1.3163 H       1  LIG1        0.0696
     53 H          -6.8871   -0.4549   -2.8810 H       1  LIG1        0.1166
     54 H          -6.7129    1.3141   -2.9454 H       1  LIG1        0.1166
     55 H          -1.3289   -1.8168   -2.7960 H       1  LIG1        0.0760
     56 H           0.3669   -1.9924   -3.2156 H       1  LIG1        0.0760
     57 H           2.6992   -6.1005    2.9358 H       1  LIG1        0.0295
     58 H           2.2955   -4.9378    4.1815 H       1  LIG1        0.0295
     59 H           6.0502    0.5518   -4.6938 H       1  LIG1        0.0660
     60 H           5.9238    0.1121   -2.9877 H       1  LIG1        0.0660
     61 H           5.7455    1.8313   -3.5139 H       1  LIG1        0.0660
     62 H           5.0302   -5.2052    2.8207 H       1  LIG1        0.0231
     63 H           4.6218   -5.6802    4.4789 H       1  LIG1        0.0231
     64 H           4.6250   -3.9678    4.0264 H       1  LIG1        0.0231
@<TRIPOS>BOND
     1     1    17   ar
     2     2    17   ar
     3     3    20    1
     4     3    32    1
     5     4    21    1
     6     4    34    1
     7     5    26    1
     8     5    33    1
     9     6    30    1
    10     6    33    1
    11     7    31    1
    12     7    37    1
    13     8    36   ar
    14     9    36   ar
    15    10    11    1
    16    10    12    1
    17    10    17    1
    18    11    13    1
    19    11    16    1
    20    12    14    1
    21    12    15    1
    22    13    14   ar
    23    13    18   ar
    24    14    19   ar
    25    15    22   ar
    26    15    23   ar
    27    16    21   ar
    28    16    25   ar
    29    18    20   ar
    30    19    24   ar
    31    20    24   ar
    32    21    28   ar
    33    22    26   ar
    34    23    27   ar
    35    25    29   ar
    36    26    30   ar
    37    27    30   ar
    38    28    31   ar
    39    29    31   ar
    40    32    35    1
    41    34    36    1
    42    35    38    1
    43    10    39    1
    44    11    40    1
    45    12    41    1
    46    18    42    1
    47    19    43    1
    48    22    44    1
    49    23    45    1
    50    24    46    1
    51    25    47    1
    52    27    48    1
    53    28    49    1
    54    29    50    1
    55    32    51    1
    56    32    52    1
    57    33    53    1
    58    33    54    1
    59    34    55    1
    60    34    56    1
    61    35    57    1
    62    35    58    1
    63    37    59    1
    64    37    60    1
    65    37    61    1
    66    38    62    1
    67    38    63    1
    68    38    64    1
@<TRIPOS>MOLECULE
108002
 64 68 0 0 0
SMALL
GASTEIGER

@<TRIPOS>ATOM
      1 O          -0.3404    3.4950   -0.1027 O.co2   1  LIG1       -0.5495
      2 O          -0.9133    3.0057    2.0445 O.co2   1  LIG1       -0.5495
      3 O           1.3678   -4.1292    2.0623 O.3     1  LIG1       -0.4920
      4 O           3.4816    0.7631    0.7785 O.3     1  LIG1       -0.4858
      5 O          -5.4774    2.7539   -1.2590 O.3     1  LIG1       -0.4526
      6 O          -6.8100    0.7542   -1.4612 O.3     1  LIG1       -0.4526
      7 O           4.0395    0.3559   -3.9566 O.3     1  LIG1       -0.4950
      8 O           6.0052    1.8012    2.7664 O.co2   1  LIG1       -0.5463
      9 O           5.3450   -0.3833    2.8544 O.co2   1  LIG1       -0.5463
     10 C          -0.7403    1.2404    0.4473 C.3     1  LIG1        0.0203
     11 C           0.6340    0.5451    0.6508 C.3     1  LIG1        0.0218
     12 C          -1.8239    0.4924    1.2794 C.3     1  LIG1        0.0184
     13 C           0.2023   -0.8215    1.1440 C.ar    1  LIG1       -0.0320
     14 C          -1.1339   -0.8318    1.5534 C.ar    1  LIG1       -0.0353
     15 C          -3.1803    0.4690    0.5364 C.ar    1  LIG1       -0.0356
     16 C           1.5418    0.4748   -0.5820 C.ar    1  LIG1        0.0026
     17 C          -0.6133    2.7124    0.8530 C.2     1  LIG1        0.0466
     18 C           1.0190   -1.9367    1.3344 C.ar    1  LIG1       -0.0159
     19 C          -1.6224   -1.9288    2.2569 C.ar    1  LIG1       -0.0542
     20 C           0.5012   -3.0735    1.9579 C.ar    1  LIG1        0.1208
     21 C           2.9434    0.6285   -0.4844 C.ar    1  LIG1        0.1283
     22 C          -3.6831    1.6798    0.0038 C.ar    1  LIG1       -0.0124
     23 C          -3.9867   -0.6865    0.3932 C.ar    1  LIG1       -0.0543
     24 C          -0.8176   -3.0618    2.4266 C.ar    1  LIG1       -0.0196
     25 C           0.9930    0.2054   -1.8530 C.ar    1  LIG1       -0.0510
     26 C          -4.8942    1.6802   -0.6600 C.ar    1  LIG1        0.1665
     27 C          -5.2324   -0.6544   -0.2521 C.ar    1  LIG1       -0.0159
     28 C           3.7211    0.6008   -1.6564 C.ar    1  LIG1        0.0221
     29 C           1.7829    0.1618   -3.0046 C.ar    1  LIG1       -0.0194
     30 C          -5.6516    0.5425   -0.7794 C.ar    1  LIG1        0.1662
     31 C           3.1520    0.3697   -2.9121 C.ar    1  LIG1        0.1236
     32 C           1.0522   -5.1122    3.0450 C.3     1  LIG1        0.0893
     33 C          -6.6567    2.1458   -1.8095 C.3     1  LIG1        0.2332
     34 C           4.9186    0.8678    0.8638 C.3     1  LIG1        0.1287
     35 C           2.2696   -6.0165    3.2157 C.3     1  LIG1       -0.0215
     36 C           5.4251    0.7647    2.3176 C.2     1  LIG1        0.0789
     37 C           3.5022    0.0777   -5.2411 C.3     1  LIG1        0.0788
     38 C           2.0222   -7.1044    4.2460 C.3     1  LIG1       -0.0622
     39 H          -1.0374    1.2336   -0.6073 H       1  LIG1        0.0379
     40 H           1.1674    1.0418    1.4719 H       1  LIG1        0.0405
     41 H          -2.0089    0.9541    2.2564 H       1  LIG1        0.0404
     42 H           2.0659   -1.9049    1.0399 H       1  LIG1        0.0657
     43 H          -2.6169   -1.9087    2.6896 H       1  LIG1        0.0622
     44 H          -3.1287    2.6103    0.0907 H       1  LIG1        0.0658
     45 H          -3.6584   -1.6479    0.7715 H       1  LIG1        0.0622
     46 H          -1.2421   -3.9150    2.9418 H       1  LIG1        0.0654
     47 H          -0.0728    0.0242   -1.9607 H       1  LIG1        0.0623
     48 H          -5.8362   -1.5473   -0.3407 H       1  LIG1        0.0655
     49 H           4.7937    0.7529   -1.6192 H       1  LIG1        0.0691
     50 H           1.2875   -0.0276   -3.9484 H       1  LIG1        0.0654
     51 H           0.1985   -5.7103    2.7058 H       1  LIG1        0.0696
     52 H           0.8176   -4.6379    4.0059 H       1  LIG1        0.0696
     53 H          -6.6203    2.2287   -2.9027 H       1  LIG1        0.1166
     54 H          -7.5344    2.6955   -1.4491 H       1  LIG1        0.1166
     55 H           5.2350    1.8271    0.4358 H       1  LIG1        0.0760
     56 H           5.3972    0.0410    0.3242 H       1  LIG1        0.0760
     57 H           3.1353   -5.4126    3.5133 H       1  LIG1        0.0295
     58 H           2.5332   -6.4683    2.2521 H       1  LIG1        0.0295
     59 H           4.3297    0.0813   -5.9570 H       1  LIG1        0.0660
     60 H           2.7925    0.8521   -5.5504 H       1  LIG1        0.0660
     61 H           3.0434   -0.9163   -5.2723 H       1  LIG1        0.0660
     62 H           1.7771   -6.6723    5.2217 H       1  LIG1        0.0231
     63 H           2.9151   -7.7256    4.3645 H       1  LIG1        0.0231
     64 H           1.1951   -7.7528    3.9401 H       1  LIG1        0.0231
@<TRIPOS>BOND
     1     1    17   ar
     2     2    17   ar
     3     3    20    1
     4     3    32    1
     5     4    21    1
     6     4    34    1
     7     5    26    1
     8     5    33    1
     9     6    30    1
    10     6    33    1
    11     7    31    1
    12     7    37    1
    13     8    36   ar
    14     9    36   ar
    15    10    11    1
    16    10    12    1
    17    10    17    1
    18    11    13    1
    19    11    16    1
    20    12    14    1
    21    12    15    1
    22    13    14   ar
    23    13    18   ar
    24    14    19   ar
    25    15    22   ar
    26    15    23   ar
    27    16    21   ar
    28    16    25   ar
    29    18    20   ar
    30    19    24   ar
    31    20    24   ar
    32    21    28   ar
    33    22    26   ar
    34    23    27   ar
    35    25    29   ar
    36    26    30   ar
    37    27    30   ar
    38    28    31   ar
    39    29    31   ar
    40    32    35    1
    41    34    36    1
    42    35    38    1
    43    10    39    1
    44    11    40    1
    45    12    41    1
    46    18    42    1
    47    19    43    1
    48    22    44    1
    49    23    45    1
    50    24    46    1
    51    25    47    1
    52    27    48    1
    53    28    49    1
    54    29    50    1
    55    32    51    1
    56    32    52    1
    57    33    53    1
    58    33    54    1
    59    34    55    1
    60    34    56    1
    61    35    57    1
    62    35    58    1
    63    37    59    1
    64    37    60    1
    65    37    61    1
    66    38    62    1
    67    38    63    1
    68    38    64    1
@<TRIPOS>MOLECULE
108002
 64 68 0 0 0
SMALL
GASTEIGER

@<TRIPOS>ATOM
      1 O          -0.1452    2.7991    2.1756 O.co2   1  LIG1       -0.5495
      2 O          -1.0255    3.5772    0.2335 O.co2   1  LIG1       -0.5495
      3 O           1.3020   -4.1974    2.2935 O.3     1  LIG1       -0.4920
      4 O           0.2386   -1.1660   -1.7251 O.3     1  LIG1       -0.4858
      5 O          -5.2773   -1.3142   -1.7406 O.3     1  LIG1       -0.4526
      6 O          -6.8255    0.4335   -1.1396 O.3     1  LIG1       -0.4526
      7 O           4.0048    1.0371   -3.9772 O.3     1  LIG1       -0.4950
      8 O           0.0711   -4.3334   -2.1069 O.co2   1  LIG1       -0.5463
      9 O          -1.9117   -3.3524   -2.6685 O.co2   1  LIG1       -0.5463
     10 C          -0.6918    1.2423    0.4516 C.3     1  LIG1        0.0203
     11 C           0.6654    0.5273    0.6303 C.3     1  LIG1        0.0218
     12 C          -1.7306    0.4789    1.3057 C.3     1  LIG1        0.0184
     13 C           0.2813   -0.8207    1.1841 C.ar    1  LIG1       -0.0320
     14 C          -1.0664   -0.8572    1.5451 C.ar    1  LIG1       -0.0353
     15 C          -3.1052    0.4525    0.6496 C.ar    1  LIG1       -0.0356
     16 C           1.5147    0.5351   -0.6386 C.ar    1  LIG1        0.0026
     17 C          -0.6065    2.6663    1.0036 C.2     1  LIG1        0.0466
     18 C           1.1212   -1.9043    1.4159 C.ar    1  LIG1       -0.0159
     19 C          -1.6020   -2.0005    2.1223 C.ar    1  LIG1       -0.0542
     20 C           0.5958   -3.0587    1.9979 C.ar    1  LIG1        0.1208
     21 C           1.2614   -0.2455   -1.7858 C.ar    1  LIG1        0.1283
     22 C          -3.4775   -0.5175   -0.2986 C.ar    1  LIG1       -0.0124
     23 C          -4.0219    1.4846    0.9753 C.ar    1  LIG1       -0.0543
     24 C          -0.7679   -3.1050    2.3290 C.ar    1  LIG1       -0.0196
     25 C           2.5956    1.4394   -0.6647 C.ar    1  LIG1       -0.0510
     26 C          -4.7469   -0.4477   -0.8362 C.ar    1  LIG1        0.1665
     27 C          -5.2979    1.5347    0.4061 C.ar    1  LIG1       -0.0159
     28 C           2.0599   -0.0605   -2.9310 C.ar    1  LIG1        0.0221
     29 C           3.4118    1.5646   -1.7896 C.ar    1  LIG1       -0.0194
     30 C          -5.6327    0.5480   -0.4918 C.ar    1  LIG1        0.1662
     31 C           3.1450    0.8205   -2.9309 C.ar    1  LIG1        0.1236
     32 C           2.7249   -4.1198    2.2251 C.3     1  LIG1        0.0893
     33 C          -6.5711   -0.7336   -1.9497 C.3     1  LIG1        0.2332
     34 C           0.0921   -2.0704   -2.8388 C.3     1  LIG1        0.1287
     35 C           3.2468   -4.4569    0.8297 C.3     1  LIG1       -0.0215
     36 C          -0.6640   -3.3561   -2.4463 C.2     1  LIG1        0.0789
     37 C           3.7840    0.2592   -5.1465 C.3     1  LIG1        0.0788
     38 C           4.7553   -4.2905    0.7513 C.3     1  LIG1       -0.0622
     39 H          -0.9893    1.2727   -0.6055 H       1  LIG1        0.0379
     40 H           1.2577    0.9926    1.4301 H       1  LIG1        0.0405
     41 H          -1.8474    0.9270    2.3029 H       1  LIG1        0.0404
     42 H           2.1565   -1.8198    1.1145 H       1  LIG1        0.0657
     43 H          -2.6503   -2.0427    2.3962 H       1  LIG1        0.0622
     44 H          -2.7931   -1.3005   -0.6176 H       1  LIG1        0.0658
     45 H          -3.7144    2.2712    1.6639 H       1  LIG1        0.0622
     46 H          -1.1822   -4.0144    2.7532 H       1  LIG1        0.0654
     47 H           2.7949    2.0672    0.2022 H       1  LIG1        0.0623
     48 H          -5.9867    2.3319    0.6530 H       1  LIG1        0.0655
     49 H           1.8234   -0.6065   -3.8327 H       1  LIG1        0.0691
     50 H           4.2415    2.2648   -1.7746 H       1  LIG1        0.0654
     51 H           3.1042   -4.8731    2.9266 H       1  LIG1        0.0696
     52 H           3.1018   -3.1602    2.6001 H       1  LIG1        0.0696
     53 H          -7.3345   -1.4862   -1.7200 H       1  LIG1        0.1166
     54 H          -6.6675   -0.4535   -3.0052 H       1  LIG1        0.1166
     55 H           1.0655   -2.4112   -3.2105 H       1  LIG1        0.0760
     56 H          -0.4489   -1.5572   -3.6405 H       1  LIG1        0.0760
     57 H           2.7709   -3.8274    0.0701 H       1  LIG1        0.0295
     58 H           2.9701   -5.4871    0.5765 H       1  LIG1        0.0295
     59 H           4.5714    0.5059   -5.8652 H       1  LIG1        0.0660
     60 H           2.8233    0.5081   -5.6092 H       1  LIG1        0.0660
     61 H           3.8575   -0.8132   -4.9338 H       1  LIG1        0.0660
     62 H           5.0466   -3.2590    0.9736 H       1  LIG1        0.0231
     63 H           5.1146   -4.5350   -0.2525 H       1  LIG1        0.0231
     64 H           5.2609   -4.9503    1.4646 H       1  LIG1        0.0231
@<TRIPOS>BOND
     1     1    17   ar
     2     2    17   ar
     3     3    20    1
     4     3    32    1
     5     4    21    1
     6     4    34    1
     7     5    26    1
     8     5    33    1
     9     6    30    1
    10     6    33    1
    11     7    31    1
    12     7    37    1
    13     8    36   ar
    14     9    36   ar
    15    10    11    1
    16    10    12    1
    17    10    17    1
    18    11    13    1
    19    11    16    1
    20    12    14    1
    21    12    15    1
    22    13    14   ar
    23    13    18   ar
    24    14    19   ar
    25    15    22   ar
    26    15    23   ar
    27    16    21   ar
    28    16    25   ar
    29    18    20   ar
    30    19    24   ar
    31    20    24   ar
    32    21    28   ar
    33    22    26   ar
    34    23    27   ar
    35    25    29   ar
    36    26    30   ar
    37    27    30   ar
    38    28    31   ar
    39    29    31   ar
    40    32    35    1
    41    34    36    1
    42    35    38    1
    43    10    39    1
    44    11    40    1
    45    12    41    1
    46    18    42    1
    47    19    43    1
    48    22    44    1
    49    23    45    1
    50    24    46    1
    51    25    47    1
    52    27    48    1
    53    28    49    1
    54    29    50    1
    55    32    51    1
    56    32    52    1
    57    33    53    1
    58    33    54    1
    59    34    55    1
    60    34    56    1
    61    35    57    1
    62    35    58    1
    63    37    59    1
    64    37    60    1
    65    37    61    1
    66    38    62    1
    67    38    63    1
    68    38    64    1
@<TRIPOS>MOLECULE
108002
 64 68 0 0 0
SMALL
GASTEIGER

@<TRIPOS>ATOM
      1 O           0.7235    3.1582    1.2791 O.co2   1  LIG1       -0.5495
      2 O          -1.5283    3.3327    1.4312 O.co2   1  LIG1       -0.5495
      3 O           1.1326   -4.2120    2.3696 O.3     1  LIG1       -0.4920
      4 O           0.1811   -1.1243   -1.8254 O.3     1  LIG1       -0.4858
      5 O          -6.5210    1.7197    1.1018 O.3     1  LIG1       -0.4526
      6 O          -6.8797    0.4298   -0.9084 O.3     1  LIG1       -0.4526
      7 O           3.9788    1.0743   -4.0346 O.3     1  LIG1       -0.4950
      8 O          -2.2423   -2.6672   -2.9247 O.co2   1  LIG1       -0.5463
      9 O          -0.6214   -4.2526   -2.6557 O.co2   1  LIG1       -0.5463
     10 C          -0.6182    1.3228    0.5223 C.3     1  LIG1        0.0203
     11 C           0.6878    0.4907    0.6007 C.3     1  LIG1        0.0218
     12 C          -1.6979    0.5605    1.3341 C.3     1  LIG1        0.0184
     13 C           0.2424   -0.8474    1.1322 C.ar    1  LIG1       -0.0320
     14 C          -1.0854   -0.8058    1.5517 C.ar    1  LIG1       -0.0353
     15 C          -3.0670    0.5156    0.6692 C.ar    1  LIG1       -0.0356
     16 C           1.5108    0.5049   -0.6845 C.ar    1  LIG1        0.0026
     17 C          -0.4570    2.7257    1.1335 C.2     1  LIG1        0.0466
     18 C           1.0248   -1.9784    1.3478 C.ar    1  LIG1       -0.0159
     19 C          -1.6722   -1.9097    2.1563 C.ar    1  LIG1       -0.0542
     20 C           0.4596   -3.0739    2.0054 C.ar    1  LIG1        0.1208
     21 C           1.2416   -0.2437   -1.8478 C.ar    1  LIG1        0.1283
     22 C          -4.1388    1.2174    1.2499 C.ar    1  LIG1       -0.0124
     23 C          -3.2908   -0.2267   -0.5138 C.ar    1  LIG1       -0.0543
     24 C          -0.8941   -3.0489    2.3717 C.ar    1  LIG1       -0.0196
     25 C           2.6073    1.3963   -0.7030 C.ar    1  LIG1       -0.0510
     26 C          -5.3798    1.1262    0.6536 C.ar    1  LIG1        0.1665
     27 C          -4.5589   -0.2962   -1.1008 C.ar    1  LIG1       -0.0159
     28 C           2.0577   -0.0595   -2.9848 C.ar    1  LIG1        0.0221
     29 C           3.4166    1.5457   -1.8270 C.ar    1  LIG1       -0.0194
     30 C          -5.5843    0.3892   -0.4895 C.ar    1  LIG1        0.1662
     31 C           3.1352    0.8309   -2.9818 C.ar    1  LIG1        0.1236
     32 C           2.5507   -4.0834    2.4702 C.3     1  LIG1        0.0893
     33 C          -7.4542    1.2840    0.0976 C.3     1  LIG1        0.2332
     34 C           0.0466   -1.9938   -2.9703 C.3     1  LIG1        0.1287
     35 C           3.0423   -5.1511    3.4432 C.3     1  LIG1       -0.0215
     36 C          -1.0480   -3.0627   -2.7788 C.2     1  LIG1        0.0789
     37 C           3.5182    0.6487   -5.3111 C.3     1  LIG1        0.0788
     38 C           4.5415   -5.0702    3.6620 C.3     1  LIG1       -0.0622
     39 H          -0.9284    1.4632   -0.5218 H       1  LIG1        0.0379
     40 H           1.3283    0.8713    1.4098 H       1  LIG1        0.0405
     41 H          -1.8045    0.9917    2.3398 H       1  LIG1        0.0404
     42 H           2.0539   -1.9727    1.0106 H       1  LIG1        0.0657
     43 H          -2.7126   -1.8846    2.4618 H       1  LIG1        0.0622
     44 H          -3.9883    1.8257    2.1330 H       1  LIG1        0.0658
     45 H          -2.4695   -0.7724   -0.9820 H       1  LIG1        0.0622
     46 H          -1.3372   -3.9180    2.8473 H       1  LIG1        0.0654
     47 H           2.8106    2.0131    0.1732 H       1  LIG1        0.0623
     48 H          -4.7062   -0.8830   -2.0010 H       1  LIG1        0.0655
     49 H           1.8458   -0.6183   -3.8859 H       1  LIG1        0.0691
     50 H           4.2422    2.2489   -1.8023 H       1  LIG1        0.0654
     51 H           2.8410   -3.1008    2.8643 H       1  LIG1        0.0696
     52 H           2.9984   -4.2319    1.4805 H       1  LIG1        0.0696
     53 H          -7.8784    2.1678   -0.3935 H       1  LIG1        0.1166
     54 H          -8.2683    0.7398    0.5921 H       1  LIG1        0.1166
     55 H           0.9928   -2.5183   -3.1560 H       1  LIG1        0.0760
     56 H          -0.2303   -1.3993   -3.8501 H       1  LIG1        0.0760
     57 H           2.7680   -6.1465    3.0738 H       1  LIG1        0.0295
     58 H           2.5235   -5.0324    4.4032 H       1  LIG1        0.0295
     59 H           4.2116    1.0406   -6.0619 H       1  LIG1        0.0660
     60 H           2.5253    1.0531   -5.5347 H       1  LIG1        0.0660
     61 H           3.5302   -0.4432   -5.3892 H       1  LIG1        0.0660
     62 H           5.0846   -5.2585    2.7303 H       1  LIG1        0.0231
     63 H           4.8585   -5.8159    4.3990 H       1  LIG1        0.0231
     64 H           4.8318   -4.0821    4.0355 H       1  LIG1        0.0231
@<TRIPOS>BOND
     1     1    17   ar
     2     2    17   ar
     3     3    20    1
     4     3    32    1
     5     4    21    1
     6     4    34    1
     7     5    26    1
     8     5    33    1
     9     6    30    1
    10     6    33    1
    11     7    31    1
    12     7    37    1
    13     8    36   ar
    14     9    36   ar
    15    10    11    1
    16    10    12    1
    17    10    17    1
    18    11    13    1
    19    11    16    1
    20    12    14    1
    21    12    15    1
    22    13    14   ar
    23    13    18   ar
    24    14    19   ar
    25    15    22   ar
    26    15    23   ar
    27    16    21   ar
    28    16    25   ar
    29    18    20   ar
    30    19    24   ar
    31    20    24   ar
    32    21    28   ar
    33    22    26   ar
    34    23    27   ar
    35    25    29   ar
    36    26    30   ar
    37    27    30   ar
    38    28    31   ar
    39    29    31   ar
    40    32    35    1
    41    34    36    1
    42    35    38    1
    43    10    39    1
    44    11    40    1
    45    12    41    1
    46    18    42    1
    47    19    43    1
    48    22    44    1
    49    23    45    1
    50    24    46    1
    51    25    47    1
    52    27    48    1
    53    28    49    1
    54    29    50    1
    55    32    51    1
    56    32    52    1
    57    33    53    1
    58    33    54    1
    59    34    55    1
    60    34    56    1
    61    35    57    1
    62    35    58    1
    63    37    59    1
    64    37    60    1
    65    37    61    1
    66    38    62    1
    67    38    63    1
    68    38    64    1
@<TRIPOS>MOLECULE
108002
 64 68 0 0 0
SMALL
GASTEIGER

@<TRIPOS>ATOM
      1 O          -1.5626    3.3996    1.1521 O.co2   1  LIG1       -0.5495
      2 O           0.6766    3.1130    1.3006 O.co2   1  LIG1       -0.5495
      3 O           1.0253   -4.2057    2.3862 O.3     1  LIG1       -0.4920
      4 O           0.2093   -1.2278   -1.8314 O.3     1  LIG1       -0.4858
      5 O          -5.1903   -1.2318   -1.8812 O.3     1  LIG1       -0.4526
      6 O          -6.8521    0.3578   -1.1551 O.3     1  LIG1       -0.4526
      7 O           3.9474    1.0288   -4.0858 O.3     1  LIG1       -0.4950
      8 O          -0.0095   -4.3800   -2.1761 O.co2   1  LIG1       -0.5463
      9 O          -1.9278   -3.3902   -2.9176 O.co2   1  LIG1       -0.5463
     10 C          -0.6561    1.3136    0.4376 C.3     1  LIG1        0.0203
     11 C           0.6426    0.4722    0.5416 C.3     1  LIG1        0.0218
     12 C          -1.7463    0.5832    1.2650 C.3     1  LIG1        0.0184
     13 C           0.1785   -0.8505    1.0926 C.ar    1  LIG1       -0.0320
     14 C          -1.1419   -0.7780    1.5301 C.ar    1  LIG1       -0.0353
     15 C          -3.1147    0.5395    0.5905 C.ar    1  LIG1       -0.0356
     16 C           1.4751    0.4757   -0.7364 C.ar    1  LIG1        0.0026
     17 C          -0.4952    2.7316    1.0162 C.2     1  LIG1        0.0466
     18 C           0.9442   -1.9920    1.3154 C.ar    1  LIG1       -0.0159
     19 C          -1.7329   -1.8526    2.1804 C.ar    1  LIG1       -0.0542
     20 C           0.3742   -3.0612    2.0095 C.ar    1  LIG1        0.1208
     21 C           1.2268   -0.3010   -1.8851 C.ar    1  LIG1        0.1283
     22 C          -3.4303   -0.3937   -0.4142 C.ar    1  LIG1       -0.0124
     23 C          -4.0991    1.4781    0.9886 C.ar    1  LIG1       -0.0543
     24 C          -0.9687   -2.9985    2.4101 C.ar    1  LIG1       -0.0196
     25 C           2.5465    1.3966   -0.7719 C.ar    1  LIG1       -0.0510
     26 C          -4.7094   -0.3826   -0.9340 C.ar    1  LIG1        0.1665
     27 C          -5.3830    1.4739    0.4348 C.ar    1  LIG1       -0.0159
     28 C           2.0238   -0.1022   -3.0316 C.ar    1  LIG1        0.0221
     29 C           3.3542    1.5417   -1.8975 C.ar    1  LIG1       -0.0194
     30 C          -5.6590    0.5224   -0.5189 C.ar    1  LIG1        0.1662
     31 C           3.0963    0.7946   -3.0373 C.ar    1  LIG1        0.1236
     32 C           2.4496   -4.1602    2.3755 C.3     1  LIG1        0.0893
     33 C          -6.5365   -0.7577   -2.0165 C.3     1  LIG1        0.2332
     34 C           0.0958   -2.1340   -2.9488 C.3     1  LIG1        0.1287
     35 C           2.9638   -5.1186    3.4492 C.3     1  LIG1       -0.0215
     36 C          -0.7040   -3.4031   -2.5936 C.2     1  LIG1        0.0789
     37 C           3.7614    0.2237   -5.2426 C.3     1  LIG1        0.0788
     38 C           2.5391   -4.6773    4.8452 C.3     1  LIG1       -0.0622
     39 H          -0.9655    1.4228   -0.6109 H       1  LIG1        0.0379
     40 H           1.2821    0.8554    1.3499 H       1  LIG1        0.0405
     41 H          -1.8604    1.0463    2.2557 H       1  LIG1        0.0404
     42 H           1.9628   -2.0151    0.9481 H       1  LIG1        0.0657
     43 H          -2.7653   -1.8042    2.5072 H       1  LIG1        0.0622
     44 H          -2.7019   -1.1175   -0.7739 H       1  LIG1        0.0658
     45 H          -3.8393    2.2370    1.7271 H       1  LIG1        0.0622
     46 H          -1.4146   -3.8486    2.9166 H       1  LIG1        0.0654
     47 H           2.7348    2.0324    0.0941 H       1  LIG1        0.0623
     48 H          -6.1229    2.2011    0.7418 H       1  LIG1        0.0655
     49 H           1.7936   -0.6498   -3.9347 H       1  LIG1        0.0691
     50 H           4.1684    2.2593   -1.8821 H       1  LIG1        0.0654
     51 H           2.8432   -3.1626    2.6018 H       1  LIG1        0.0696
     52 H           2.8076   -4.4765    1.3892 H       1  LIG1        0.0696
     53 H          -7.2241   -1.5792   -1.7827 H       1  LIG1        0.1166
     54 H          -6.7013   -0.4515   -3.0566 H       1  LIG1        0.1166
     55 H           1.0806   -2.4907   -3.2720 H       1  LIG1        0.0760
     56 H          -0.3991   -1.6128   -3.7775 H       1  LIG1        0.0760
     57 H           4.0573   -5.1669    3.4022 H       1  LIG1        0.0295
     58 H           2.5732   -6.1264    3.2671 H       1  LIG1        0.0295
     59 H           4.5494    0.4805   -5.9570 H       1  LIG1        0.0660
     60 H           2.7993    0.4367   -5.7189 H       1  LIG1        0.0660
     61 H           3.8637   -0.8417   -5.0087 H       1  LIG1        0.0660
     62 H           2.8909   -3.6634    5.0594 H       1  LIG1        0.0231
     63 H           2.9582   -5.3487    5.6006 H       1  LIG1        0.0231
     64 H           1.4489   -4.6894    4.9520 H       1  LIG1        0.0231
@<TRIPOS>BOND
     1     1    17   ar
     2     2    17   ar
     3     3    20    1
     4     3    32    1
     5     4    21    1
     6     4    34    1
     7     5    26    1
     8     5    33    1
     9     6    30    1
    10     6    33    1
    11     7    31    1
    12     7    37    1
    13     8    36   ar
    14     9    36   ar
    15    10    11    1
    16    10    12    1
    17    10    17    1
    18    11    13    1
    19    11    16    1
    20    12    14    1
    21    12    15    1
    22    13    14   ar
    23    13    18   ar
    24    14    19   ar
    25    15    22   ar
    26    15    23   ar
    27    16    21   ar
    28    16    25   ar
    29    18    20   ar
    30    19    24   ar
    31    20    24   ar
    32    21    28   ar
    33    22    26   ar
    34    23    27   ar
    35    25    29   ar
    36    26    30   ar
    37    27    30   ar
    38    28    31   ar
    39    29    31   ar
    40    32    35    1
    41    34    36    1
    42    35    38    1
    43    10    39    1
    44    11    40    1
    45    12    41    1
    46    18    42    1
    47    19    43    1
    48    22    44    1
    49    23    45    1
    50    24    46    1
    51    25    47    1
    52    27    48    1
    53    28    49    1
    54    29    50    1
    55    32    51    1
    56    32    52    1
    57    33    53    1
    58    33    54    1
    59    34    55    1
    60    34    56    1
    61    35    57    1
    62    35    58    1
    63    37    59    1
    64    37    60    1
    65    37    61    1
    66    38    62    1
    67    38    63    1
    68    38    64    1
@<TRIPOS>MOLECULE
108002
 64 68 0 0 0
SMALL
GASTEIGER

@<TRIPOS>ATOM
      1 O          -0.0029    2.7496    2.0994 O.co2   1  LIG1       -0.5495
      2 O          -0.9932    3.5545    0.2233 O.co2   1  LIG1       -0.5495
      3 O           1.0545   -4.3155    2.2536 O.3     1  LIG1       -0.4920
      4 O           0.2296   -1.2619   -1.7949 O.3     1  LIG1       -0.4858
      5 O          -5.3766   -1.1953   -1.7277 O.3     1  LIG1       -0.4526
      6 O          -6.8827    0.5714   -1.0790 O.3     1  LIG1       -0.4526
      7 O           4.0998    0.8421   -3.9591 O.3     1  LIG1       -0.4950
      8 O          -2.0849   -3.0745   -2.5490 O.co2   1  LIG1       -0.5463
      9 O          -0.2835   -4.4676   -2.6971 O.co2   1  LIG1       -0.5463
     10 C          -0.6778    1.2128    0.4023 C.3     1  LIG1        0.0203
     11 C           0.6464    0.4344    0.5722 C.3     1  LIG1        0.0218
     12 C          -1.7416    0.4982    1.2674 C.3     1  LIG1        0.0184
     13 C           0.2057   -0.9003    1.1165 C.ar    1  LIG1       -0.0320
     14 C          -1.1360   -0.8673    1.5007 C.ar    1  LIG1       -0.0353
     15 C          -3.1246    0.5175    0.6286 C.ar    1  LIG1       -0.0356
     16 C           1.5027    0.4343   -0.6894 C.ar    1  LIG1        0.0026
     17 C          -0.5385    2.6304    0.9590 C.2     1  LIG1        0.0466
     18 C           0.9910   -2.0286    1.3386 C.ar    1  LIG1       -0.0159
     19 C          -1.7245   -1.9764    2.0936 C.ar    1  LIG1       -0.0542
     20 C           0.4122   -3.1466    1.9411 C.ar    1  LIG1        0.1208
     21 C           1.2708   -0.3587   -1.8341 C.ar    1  LIG1        0.1283
     22 C          -3.5328   -0.4364   -0.3216 C.ar    1  LIG1       -0.0124
     23 C          -4.0165    1.5617    0.9825 C.ar    1  LIG1       -0.0543
     24 C          -0.9465   -3.1208    2.2929 C.ar    1  LIG1       -0.0196
     25 C           2.5774    1.3501   -0.7139 C.ar    1  LIG1       -0.0510
     26 C          -4.8120   -0.3428   -0.8312 C.ar    1  LIG1        0.1665
     27 C          -5.3031    1.6370    0.4401 C.ar    1  LIG1       -0.0159
     28 C           2.1093   -0.2058   -2.9528 C.ar    1  LIG1        0.0221
     29 C           3.4223    1.4569   -1.8170 C.ar    1  LIG1       -0.0194
     30 C          -5.6736    0.6627   -0.4590 C.ar    1  LIG1        0.1662
     31 C           3.2027    0.6690   -2.9399 C.ar    1  LIG1        0.1236
     32 C           2.4799   -4.3091    2.2761 C.3     1  LIG1        0.0893
     33 C          -6.6648   -0.5936   -1.9027 C.3     1  LIG1        0.2332
     34 C           0.0816   -2.1341   -2.9338 C.3     1  LIG1        0.1287
     35 C           3.0304   -3.6492    3.5430 C.3     1  LIG1       -0.0215
     36 C          -0.8522   -3.3304   -2.6483 C.2     1  LIG1        0.0789
     37 C           4.0688   -0.1396   -4.9890 C.3     1  LIG1        0.0788
     38 C           2.4752   -4.2782    4.8132 C.3     1  LIG1       -0.0622
     39 H          -0.9812    1.2534   -0.6523 H       1  LIG1        0.0379
     40 H           1.2565    0.8610    1.3800 H       1  LIG1        0.0405
     41 H          -1.8275    0.9533    2.2646 H       1  LIG1        0.0404
     42 H           2.0258   -2.0001    1.0266 H       1  LIG1        0.0657
     43 H          -2.7674   -1.9609    2.3844 H       1  LIG1        0.0622
     44 H          -2.8692   -1.2298   -0.6615 H       1  LIG1        0.0658
     45 H          -3.6818    2.3347    1.6734 H       1  LIG1        0.0622
     46 H          -1.3998   -4.0025    2.7351 H       1  LIG1        0.0654
     47 H           2.7470    2.0008    0.1446 H       1  LIG1        0.0623
     48 H          -5.9741    2.4418    0.7096 H       1  LIG1        0.0655
     49 H           1.9029   -0.7683   -3.8531 H       1  LIG1        0.0691
     50 H           4.2448    2.1627   -1.7970 H       1  LIG1        0.0654
     51 H           2.9096   -3.8775    1.3659 H       1  LIG1        0.0696
     52 H           2.7904   -5.3610    2.2713 H       1  LIG1        0.0696
     53 H          -7.4341   -1.3366   -1.6610 H       1  LIG1        0.1166
     54 H          -6.7811   -0.3051   -2.9542 H       1  LIG1        0.1166
     55 H           1.0489   -2.5626   -3.2208 H       1  LIG1        0.0760
     56 H          -0.3387   -1.5644   -3.7713 H       1  LIG1        0.0760
     57 H           2.7843   -2.5816    3.5532 H       1  LIG1        0.0295
     58 H           4.1231   -3.7286    3.5450 H       1  LIG1        0.0295
     59 H           4.9340    0.0303   -5.6376 H       1  LIG1        0.0660
     60 H           3.1687   -0.0339   -5.6022 H       1  LIG1        0.0660
     61 H           4.1567   -1.1529   -4.5824 H       1  LIG1        0.0660
     62 H           1.3896   -4.1544    4.8794 H       1  LIG1        0.0231
     63 H           2.9187   -3.8046    5.6952 H       1  LIG1        0.0231
     64 H           2.7018   -5.3487    4.8520 H       1  LIG1        0.0231
@<TRIPOS>BOND
     1     1    17   ar
     2     2    17   ar
     3     3    20    1
     4     3    32    1
     5     4    21    1
     6     4    34    1
     7     5    26    1
     8     5    33    1
     9     6    30    1
    10     6    33    1
    11     7    31    1
    12     7    37    1
    13     8    36   ar
    14     9    36   ar
    15    10    11    1
    16    10    12    1
    17    10    17    1
    18    11    13    1
    19    11    16    1
    20    12    14    1
    21    12    15    1
    22    13    14   ar
    23    13    18   ar
    24    14    19   ar
    25    15    22   ar
    26    15    23   ar
    27    16    21   ar
    28    16    25   ar
    29    18    20   ar
    30    19    24   ar
    31    20    24   ar
    32    21    28   ar
    33    22    26   ar
    34    23    27   ar
    35    25    29   ar
    36    26    30   ar
    37    27    30   ar
    38    28    31   ar
    39    29    31   ar
    40    32    35    1
    41    34    36    1
    42    35    38    1
    43    10    39    1
    44    11    40    1
    45    12    41    1
    46    18    42    1
    47    19    43    1
    48    22    44    1
    49    23    45    1
    50    24    46    1
    51    25    47    1
    52    27    48    1
    53    28    49    1
    54    29    50    1
    55    32    51    1
    56    32    52    1
    57    33    53    1
    58    33    54    1
    59    34    55    1
    60    34    56    1
    61    35    57    1
    62    35    58    1
    63    37    59    1
    64    37    60    1
    65    37    61    1
    66    38    62    1
    67    38    63    1
    68    38    64    1
@<TRIPOS>MOLECULE
108002
 64 68 0 0 0
SMALL
GASTEIGER

@<TRIPOS>ATOM
      1 O           0.8167    3.0777    1.5713 O.co2   1  LIG1       -0.5495
      2 O          -1.4205    3.2805    1.8625 O.co2   1  LIG1       -0.5495
      3 O           1.0647   -4.2981    1.6024 O.3     1  LIG1       -0.4920
      4 O          -0.2159   -0.3875   -2.0564 O.3     1  LIG1       -0.4858
      5 O          -4.9653    0.2979   -2.4619 O.3     1  LIG1       -0.4526
      6 O          -6.8759    0.5411   -1.0143 O.3     1  LIG1       -0.4526
      7 O           4.1972    0.6494   -3.8946 O.3     1  LIG1       -0.4950
      8 O          -1.8393   -0.0764   -4.5411 O.co2   1  LIG1       -0.5463
      9 O          -0.0887   -1.2673   -5.3823 O.co2   1  LIG1       -0.5463
     10 C          -0.6166    1.4099    0.6237 C.3     1  LIG1        0.0203
     11 C           0.6542    0.5226    0.5909 C.3     1  LIG1        0.0218
     12 C          -1.7332    0.5967    1.3436 C.3     1  LIG1        0.0184
     13 C           0.1560   -0.8487    0.9852 C.ar    1  LIG1       -0.0320
     14 C          -1.1640   -0.8042    1.4238 C.ar    1  LIG1       -0.0353
     15 C          -3.1195    0.6228    0.7061 C.ar    1  LIG1       -0.0356
     16 C           1.4866    0.5640   -0.6887 C.ar    1  LIG1        0.0026
     17 C          -0.3814    2.7058    1.4227 C.2     1  LIG1        0.0466
     18 C           0.8889   -2.0288    1.0561 C.ar    1  LIG1       -0.0159
     19 C          -1.7707   -1.9374    1.9557 C.ar    1  LIG1       -0.0542
     20 C           0.2766   -3.1801    1.5548 C.ar    1  LIG1        0.1208
     21 C           1.0758    0.0540   -1.9367 C.ar    1  LIG1        0.1283
     22 C          -3.3161    0.4550   -0.6746 C.ar    1  LIG1       -0.0124
     23 C          -4.2564    0.7632    1.5444 C.ar    1  LIG1       -0.0543
     24 C          -1.0420   -3.1278    2.0272 C.ar    1  LIG1       -0.0196
     25 C           2.7814    1.1134   -0.5882 C.ar    1  LIG1       -0.0510
     26 C          -4.6074    0.4454   -1.1599 C.ar    1  LIG1        0.1665
     27 C          -5.5561    0.7385    1.0260 C.ar    1  LIG1       -0.0159
     28 C           1.9683    0.0713   -3.0206 C.ar    1  LIG1        0.0221
     29 C           3.6568    1.1211   -1.6752 C.ar    1  LIG1       -0.0194
     30 C          -5.6970    0.5816   -0.3329 C.ar    1  LIG1        0.1662
     31 C           3.2572    0.5934   -2.8972 C.ar    1  LIG1        0.1236
     32 C           0.3948   -5.5311    1.3395 C.3     1  LIG1        0.0893
     33 C          -6.3885    0.4322   -2.3706 C.3     1  LIG1        0.2332
     34 C          -0.5000   -1.4009   -3.0455 C.3     1  LIG1        0.1287
     35 C           1.2390   -6.3435    0.3610 C.3     1  LIG1       -0.0215
     36 C          -0.8334   -0.8369   -4.4449 C.2     1  LIG1        0.0789
     37 C           3.7596    0.2256   -5.1833 C.3     1  LIG1        0.0788
     38 C           1.2711   -5.6988   -1.0196 C.3     1  LIG1       -0.0622
     39 H          -0.9090    1.7209   -0.3860 H       1  LIG1        0.0379
     40 H           1.3143    0.7916    1.4275 H       1  LIG1        0.0405
     41 H          -1.8241    0.9308    2.3863 H       1  LIG1        0.0404
     42 H           1.9231   -2.0510    0.7277 H       1  LIG1        0.0657
     43 H          -2.7895   -1.8919    2.3248 H       1  LIG1        0.0622
     44 H          -2.4841    0.3400   -1.3629 H       1  LIG1        0.0658
     45 H          -4.1127    0.9039    2.6136 H       1  LIG1        0.0622
     46 H          -1.5115   -3.9971    2.4721 H       1  LIG1        0.0654
     47 H           3.1046    1.5552    0.3536 H       1  LIG1        0.0623
     48 H          -6.4168    0.8500    1.6715 H       1  LIG1        0.0655
     49 H           1.6402   -0.3090   -3.9767 H       1  LIG1        0.0691
     50 H           4.6457    1.5539   -1.5651 H       1  LIG1        0.0654
     51 H          -0.6100   -5.4059    0.9180 H       1  LIG1        0.0696
     52 H           0.3077   -6.0725    2.2881 H       1  LIG1        0.0696
     53 H          -6.8549   -0.4435   -2.8376 H       1  LIG1        0.1166
     54 H          -6.6973    1.3264   -2.9248 H       1  LIG1        0.1166
     55 H          -1.3949   -1.9308   -2.6946 H       1  LIG1        0.0760
     56 H           0.3040   -2.1470   -3.0834 H       1  LIG1        0.0760
     57 H           0.8259   -7.3545    0.2765 H       1  LIG1        0.0295
     58 H           2.2662   -6.4281    0.7331 H       1  LIG1        0.0295
     59 H           4.5908    0.3741   -5.8801 H       1  LIG1        0.0660
     60 H           2.9193    0.8308   -5.5390 H       1  LIG1        0.0660
     61 H           3.5156   -0.8423   -5.1858 H       1  LIG1        0.0660
     62 H           0.2588   -5.5866   -1.4207 H       1  LIG1        0.0231
     63 H           1.8447   -6.3199   -1.7138 H       1  LIG1        0.0231
     64 H           1.7372   -4.7097   -0.9865 H       1  LIG1        0.0231
@<TRIPOS>BOND
     1     1    17   ar
     2     2    17   ar
     3     3    20    1
     4     3    32    1
     5     4    21    1
     6     4    34    1
     7     5    26    1
     8     5    33    1
     9     6    30    1
    10     6    33    1
    11     7    31    1
    12     7    37    1
    13     8    36   ar
    14     9    36   ar
    15    10    11    1
    16    10    12    1
    17    10    17    1
    18    11    13    1
    19    11    16    1
    20    12    14    1
    21    12    15    1
    22    13    14   ar
    23    13    18   ar
    24    14    19   ar
    25    15    22   ar
    26    15    23   ar
    27    16    21   ar
    28    16    25   ar
    29    18    20   ar
    30    19    24   ar
    31    20    24   ar
    32    21    28   ar
    33    22    26   ar
    34    23    27   ar
    35    25    29   ar
    36    26    30   ar
    37    27    30   ar
    38    28    31   ar
    39    29    31   ar
    40    32    35    1
    41    34    36    1
    42    35    38    1
    43    10    39    1
    44    11    40    1
    45    12    41    1
    46    18    42    1
    47    19    43    1
    48    22    44    1
    49    23    45    1
    50    24    46    1
    51    25    47    1
    52    27    48    1
    53    28    49    1
    54    29    50    1
    55    32    51    1
    56    32    52    1
    57    33    53    1
    58    33    54    1
    59    34    55    1
    60    34    56    1
    61    35    57    1
    62    35    58    1
    63    37    59    1
    64    37    60    1
    65    37    61    1
    66    38    62    1
    67    38    63    1
    68    38    64    1
@<TRIPOS>MOLECULE
108002
 64 68 0 0 0
SMALL
GASTEIGER

@<TRIPOS>ATOM
      1 O          -1.5715    3.3313    1.4046 O.co2   1  LIG1       -0.5495
      2 O           0.6814    3.1659    1.2724 O.co2   1  LIG1       -0.5495
      3 O           1.1302   -4.1994    2.3809 O.3     1  LIG1       -0.4920
      4 O           0.1763   -1.1263   -1.8260 O.3     1  LIG1       -0.4858
      5 O          -6.5484    1.7019    1.0877 O.3     1  LIG1       -0.4526
      6 O          -6.9042    0.4011   -0.9157 O.3     1  LIG1       -0.4526
      7 O           3.9701    1.0893   -4.0253 O.3     1  LIG1       -0.4950
      8 O          -2.2429   -2.6673   -2.9381 O.co2   1  LIG1       -0.5463
      9 O          -0.6239   -4.2531   -2.6586 O.co2   1  LIG1       -0.5463
     10 C          -0.6461    1.3212    0.5135 C.3     1  LIG1        0.0203
     11 C           0.6644    0.4970    0.5986 C.3     1  LIG1        0.0218
     12 C          -1.7230    0.5564    1.3271 C.3     1  LIG1        0.0184
     13 C           0.2254   -0.8423    1.1324 C.ar    1  LIG1       -0.0320
     14 C          -1.1038   -0.8062    1.5495 C.ar    1  LIG1       -0.0353
     15 C          -3.0913    0.5030    0.6626 C.ar    1  LIG1       -0.0356
     16 C           1.4918    0.5134   -0.6839 C.ar    1  LIG1        0.0026
     17 C          -0.4958    2.7278    1.1187 C.2     1  LIG1        0.0466
     18 C           1.0132   -1.9682    1.3535 C.ar    1  LIG1       -0.0159
     19 C          -1.6855   -1.9112    2.1570 C.ar    1  LIG1       -0.0542
     20 C           0.4524   -3.0653    2.0130 C.ar    1  LIG1        0.1208
     21 C           1.2323   -0.2403   -1.8463 C.ar    1  LIG1        0.1283
     22 C          -4.1656    1.2040    1.2386 C.ar    1  LIG1       -0.0124
     23 C          -3.3135   -0.2460   -0.5172 C.ar    1  LIG1       -0.0543
     24 C          -0.9022   -3.0456    2.3771 C.ar    1  LIG1       -0.0196
     25 C           2.5819    1.4126   -0.7008 C.ar    1  LIG1       -0.0510
     26 C          -5.4056    1.1085    0.6436 C.ar    1  LIG1        0.1665
     27 C          -4.5811   -0.3217   -1.1032 C.ar    1  LIG1       -0.0159
     28 C           2.0528   -0.0551   -2.9802 C.ar    1  LIG1        0.0221
     29 C           3.3944    1.5647   -1.8223 C.ar    1  LIG1       -0.0194
     30 C          -5.6089    0.3646   -0.4968 C.ar    1  LIG1        0.1662
     31 C           3.1239    0.8433   -2.9757 C.ar    1  LIG1        0.1236
     32 C           2.5477   -4.0661    2.4764 C.3     1  LIG1        0.0893
     33 C          -7.4800    1.2613    0.0843 C.3     1  LIG1        0.2332
     34 C           0.0473   -1.9956   -2.9718 C.3     1  LIG1        0.1287
     35 C           3.0476   -5.1424    3.4366 C.3     1  LIG1       -0.0215
     36 C          -1.0483   -3.0631   -2.7849 C.2     1  LIG1        0.0789
     37 C           3.5224    0.6506   -5.3017 C.3     1  LIG1        0.0788
     38 C           4.5482   -5.0595    3.6494 C.3     1  LIG1       -0.0622
     39 H          -0.9557    1.4540   -0.5319 H       1  LIG1        0.0379
     40 H           1.2999    0.8835    1.4085 H       1  LIG1        0.0405
     41 H          -1.8313    0.9902    2.3315 H       1  LIG1        0.0404
     42 H           2.0430   -1.9580    1.0186 H       1  LIG1        0.0657
     43 H          -2.7263   -1.8903    2.4610 H       1  LIG1        0.0622
     44 H          -4.0164    1.8187    2.1208 H       1  LIG1        0.0658
     45 H          -2.4905   -0.7909   -0.9830 H       1  LIG1        0.0622
     46 H          -1.3413   -3.9154    2.8547 H       1  LIG1        0.0654
     47 H           2.7769    2.0339    0.1738 H       1  LIG1        0.0623
     48 H          -4.7270   -0.9124   -2.0014 H       1  LIG1        0.0655
     49 H           1.8492   -0.6186   -3.8798 H       1  LIG1        0.0691
     50 H           4.2145    2.2745   -1.7967 H       1  LIG1        0.0654
     51 H           2.8347   -3.0869    2.8790 H       1  LIG1        0.0696
     52 H           2.9922   -4.2038    1.4841 H       1  LIG1        0.0696
     53 H          -7.9021    2.1434   -0.4123 H       1  LIG1        0.1166
     54 H          -8.2955    0.7213    0.5803 H       1  LIG1        0.1166
     55 H           0.9939   -2.5199   -3.1525 H       1  LIG1        0.0760
     56 H          -0.2254   -1.4010   -3.8530 H       1  LIG1        0.0760
     57 H           2.7745   -6.1349    3.0585 H       1  LIG1        0.0295
     58 H           2.5333   -5.0349    4.3998 H       1  LIG1        0.0295
     59 H           4.2160    1.0445   -6.0507 H       1  LIG1        0.0660
     60 H           2.5262    1.0433   -5.5343 H       1  LIG1        0.0660
     61 H           3.5457   -0.4416   -5.3722 H       1  LIG1        0.0660
     62 H           5.0866   -5.2350    2.7127 H       1  LIG1        0.0231
     63 H           4.8703   -5.8119    4.3747 H       1  LIG1        0.0231
     64 H           4.8365   -4.0751    4.0324 H       1  LIG1        0.0231
@<TRIPOS>BOND
     1     1    17   ar
     2     2    17   ar
     3     3    20    1
     4     3    32    1
     5     4    21    1
     6     4    34    1
     7     5    26    1
     8     5    33    1
     9     6    30    1
    10     6    33    1
    11     7    31    1
    12     7    37    1
    13     8    36   ar
    14     9    36   ar
    15    10    11    1
    16    10    12    1
    17    10    17    1
    18    11    13    1
    19    11    16    1
    20    12    14    1
    21    12    15    1
    22    13    14   ar
    23    13    18   ar
    24    14    19   ar
    25    15    22   ar
    26    15    23   ar
    27    16    21   ar
    28    16    25   ar
    29    18    20   ar
    30    19    24   ar
    31    20    24   ar
    32    21    28   ar
    33    22    26   ar
    34    23    27   ar
    35    25    29   ar
    36    26    30   ar
    37    27    30   ar
    38    28    31   ar
    39    29    31   ar
    40    32    35    1
    41    34    36    1
    42    35    38    1
    43    10    39    1
    44    11    40    1
    45    12    41    1
    46    18    42    1
    47    19    43    1
    48    22    44    1
    49    23    45    1
    50    24    46    1
    51    25    47    1
    52    27    48    1
    53    28    49    1
    54    29    50    1
    55    32    51    1
    56    32    52    1
    57    33    53    1
    58    33    54    1
    59    34    55    1
    60    34    56    1
    61    35    57    1
    62    35    58    1
    63    37    59    1
    64    37    60    1
    65    37    61    1
    66    38    62    1
    67    38    63    1
    68    38    64    1
@<TRIPOS>MOLECULE
108002
 64 68 0 0 0
SMALL
GASTEIGER

@<TRIPOS>ATOM
      1 O          -0.3330    2.6715    2.5173 O.co2   1  LIG1       -0.5495
      2 O          -1.6480    3.5161    0.8601 O.co2   1  LIG1       -0.5495
      3 O           1.2799   -4.2308    1.7907 O.3     1  LIG1       -0.4920
      4 O           2.6558    2.6914    0.0138 O.3     1  LIG1       -0.4858
      5 O          -4.8499    0.0781   -2.6922 O.3     1  LIG1       -0.4526
      6 O          -6.8147    0.3692   -1.3228 O.3     1  LIG1       -0.4526
      7 O           3.8547    0.3320   -4.0656 O.3     1  LIG1       -0.4950
      8 O           4.6920    4.3300   -1.3488 O.co2   1  LIG1       -0.5463
      9 O           5.2847    4.8978    0.7711 O.co2   1  LIG1       -0.5463
     10 C          -0.7119    1.3732    0.5583 C.3     1  LIG1        0.0203
     11 C           0.6657    0.6792    0.6939 C.3     1  LIG1        0.0218
     12 C          -1.7829    0.4752    1.2414 C.3     1  LIG1        0.0184
     13 C           0.2817   -0.7355    1.1270 C.ar    1  LIG1       -0.0320
     14 C          -1.0897   -0.8589    1.3510 C.ar    1  LIG1       -0.0353
     15 C          -3.1399    0.4151    0.5502 C.ar    1  LIG1       -0.0356
     16 C           1.4790    0.6924   -0.6115 C.ar    1  LIG1        0.0026
     17 C          -0.8740    2.6566    1.3744 C.2     1  LIG1        0.0466
     18 C           1.1263   -1.8343    1.2919 C.ar    1  LIG1       -0.0159
     19 C          -1.6430   -2.0718    1.7428 C.ar    1  LIG1       -0.0542
     20 C           0.5690   -3.0718    1.6279 C.ar    1  LIG1        0.1208
     21 C           2.4975    1.6342   -0.8470 C.ar    1  LIG1        0.1283
     22 C          -3.2721    0.2163   -0.8339 C.ar    1  LIG1       -0.0124
     23 C          -4.3089    0.5725    1.3395 C.ar    1  LIG1       -0.0543
     24 C          -0.8065   -3.1804    1.8736 C.ar    1  LIG1       -0.0196
     25 C           1.2521   -0.2830   -1.6079 C.ar    1  LIG1       -0.0510
     26 C          -4.5428    0.2199   -1.3727 C.ar    1  LIG1        0.1665
     27 C          -5.5841    0.5514    0.7697 C.ar    1  LIG1       -0.0159
     28 C           3.2832    1.5506   -2.0075 C.ar    1  LIG1        0.0221
     29 C           2.0648   -0.3747   -2.7421 C.ar    1  LIG1       -0.0194
     30 C          -5.6654    0.3841   -0.5929 C.ar    1  LIG1        0.1662
     31 C           3.1015    0.5299   -2.9371 C.ar    1  LIG1        0.1236
     32 C           2.3698   -4.4248    0.8866 C.3     1  LIG1        0.0893
     33 C          -6.2721    0.2960   -2.6561 C.3     1  LIG1        0.2332
     34 C           4.0107    2.9056    0.4786 C.3     1  LIG1        0.1287
     35 C           3.6786   -4.3987    1.6672 C.3     1  LIG1       -0.0215
     36 C           4.6806    4.1845   -0.0899 C.2     1  LIG1        0.0789
     37 C           4.9926    1.1809   -4.2012 C.3     1  LIG1        0.0788
     38 C           4.8718   -4.6850    0.7735 C.3     1  LIG1       -0.0622
     39 H          -0.9413    1.5910   -0.4914 H       1  LIG1        0.0379
     40 H           1.2755    1.1048    1.4993 H       1  LIG1        0.0405
     41 H          -1.9559    0.7858    2.2826 H       1  LIG1        0.0404
     42 H           2.1930   -1.7044    1.1460 H       1  LIG1        0.0657
     43 H          -2.7043   -2.1542    1.9516 H       1  LIG1        0.0622
     44 H          -2.4030    0.0980   -1.4714 H       1  LIG1        0.0658
     45 H          -4.2103    0.7440    2.4105 H       1  LIG1        0.0622
     46 H          -1.2256   -4.1368    2.1705 H       1  LIG1        0.0654
     47 H           0.4465   -1.0041   -1.4934 H       1  LIG1        0.0623
     48 H          -6.4691    0.6922    1.3766 H       1  LIG1        0.0655
     49 H           4.0249    2.3197   -2.1770 H       1  LIG1        0.0691
     50 H           1.8857   -1.1579   -3.4714 H       1  LIG1        0.0654
     51 H           2.3780   -3.7193    0.0470 H       1  LIG1        0.0696
     52 H           2.2331   -5.4199    0.4462 H       1  LIG1        0.0696
     53 H          -6.7650   -0.5263   -3.1862 H       1  LIG1        0.1166
     54 H          -6.5004    1.2330   -3.1793 H       1  LIG1        0.1166
     55 H           4.6579    2.0400    0.2892 H       1  LIG1        0.0760
     56 H           3.9381    3.0106    1.5678 H       1  LIG1        0.0760
     57 H           3.6366   -5.1379    2.4764 H       1  LIG1        0.0295
     58 H           3.8032   -3.4252    2.1548 H       1  LIG1        0.0295
     59 H           5.5456    0.8552   -5.0878 H       1  LIG1        0.0660
     60 H           5.6671    1.0870   -3.3427 H       1  LIG1        0.0660
     61 H           4.6916    2.2211   -4.3625 H       1  LIG1        0.0660
     62 H           4.7812   -5.6687    0.3015 H       1  LIG1        0.0231
     63 H           5.7960   -4.6743    1.3594 H       1  LIG1        0.0231
     64 H           4.9597   -3.9318   -0.0158 H       1  LIG1        0.0231
@<TRIPOS>BOND
     1     1    17   ar
     2     2    17   ar
     3     3    20    1
     4     3    32    1
     5     4    21    1
     6     4    34    1
     7     5    26    1
     8     5    33    1
     9     6    30    1
    10     6    33    1
    11     7    31    1
    12     7    37    1
    13     8    36   ar
    14     9    36   ar
    15    10    11    1
    16    10    12    1
    17    10    17    1
    18    11    13    1
    19    11    16    1
    20    12    14    1
    21    12    15    1
    22    13    14   ar
    23    13    18   ar
    24    14    19   ar
    25    15    22   ar
    26    15    23   ar
    27    16    21   ar
    28    16    25   ar
    29    18    20   ar
    30    19    24   ar
    31    20    24   ar
    32    21    28   ar
    33    22    26   ar
    34    23    27   ar
    35    25    29   ar
    36    26    30   ar
    37    27    30   ar
    38    28    31   ar
    39    29    31   ar
    40    32    35    1
    41    34    36    1
    42    35    38    1
    43    10    39    1
    44    11    40    1
    45    12    41    1
    46    18    42    1
    47    19    43    1
    48    22    44    1
    49    23    45    1
    50    24    46    1
    51    25    47    1
    52    27    48    1
    53    28    49    1
    54    29    50    1
    55    32    51    1
    56    32    52    1
    57    33    53    1
    58    33    54    1
    59    34    55    1
    60    34    56    1
    61    35    57    1
    62    35    58    1
    63    37    59    1
    64    37    60    1
    65    37    61    1
    66    38    62    1
    67    38    63    1
    68    38    64    1
@<TRIPOS>MOLECULE
108002
 64 68 0 0 0
SMALL
GASTEIGER

@<TRIPOS>ATOM
      1 O           0.6559    3.3083    0.9818 O.co2   1  LIG1       -0.5495
      2 O          -1.5099    3.2999    1.6317 O.co2   1  LIG1       -0.5495
      3 O           1.2144   -4.1809    2.1782 O.3     1  LIG1       -0.4920
      4 O           0.1847   -1.1442   -1.7258 O.3     1  LIG1       -0.4858
      5 O          -5.1388   -1.2507   -1.8682 O.3     1  LIG1       -0.4526
      6 O          -6.7945    0.3646   -1.1864 O.3     1  LIG1       -0.4526
      7 O           3.9457    0.9947   -4.0472 O.3     1  LIG1       -0.4950
      8 O           0.1919   -4.2847   -1.8261 O.co2   1  LIG1       -0.5463
      9 O          -1.8200   -3.5497   -2.6155 O.co2   1  LIG1       -0.5463
     10 C          -0.6553    1.3577    0.5248 C.3     1  LIG1        0.0203
     11 C           0.6757    0.5648    0.6258 C.3     1  LIG1        0.0218
     12 C          -1.7281    0.5650    1.3198 C.3     1  LIG1        0.0184
     13 C           0.2574   -0.7751    1.1704 C.ar    1  LIG1       -0.0320
     14 C          -1.0802   -0.7800    1.5574 C.ar    1  LIG1       -0.0353
     15 C          -3.0867    0.5177    0.6265 C.ar    1  LIG1       -0.0356
     16 C           1.4946    0.5482   -0.6662 C.ar    1  LIG1        0.0026
     17 C          -0.4874    2.7752    1.1017 C.2     1  LIG1        0.0466
     18 C           1.0637   -1.8884    1.3708 C.ar    1  LIG1       -0.0159
     19 C          -1.6390   -1.9080    2.1474 C.ar    1  LIG1       -0.0542
     20 C           0.4999   -3.0409    1.9189 C.ar    1  LIG1        0.1208
     21 C           1.2156   -0.2360   -1.8043 C.ar    1  LIG1        0.1283
     22 C          -3.3959   -0.4213   -0.3745 C.ar    1  LIG1       -0.0124
     23 C          -4.0681    1.4716    0.9969 C.ar    1  LIG1       -0.0543
     24 C          -0.8412   -3.0424    2.3223 C.ar    1  LIG1       -0.0196
     25 C           2.5939    1.4319   -0.7189 C.ar    1  LIG1       -0.0510
     26 C          -4.6651   -0.3996   -0.9188 C.ar    1  LIG1        0.1665
     27 C          -5.3407    1.4786    0.4189 C.ar    1  LIG1       -0.0159
     28 C           1.9986   -0.0661   -2.9647 C.ar    1  LIG1        0.0221
     29 C           3.3954    1.5400   -1.8549 C.ar    1  LIG1       -0.0194
     30 C          -5.6111    0.5212   -0.5304 C.ar    1  LIG1        0.1662
     31 C           3.0991    0.7950   -2.9877 C.ar    1  LIG1        0.1236
     32 C           2.0831   -4.5921    1.1149 C.3     1  LIG1        0.0893
     33 C          -6.4805   -0.7685   -2.0233 C.3     1  LIG1        0.2332
     34 C           0.0724   -2.1115   -2.7881 C.3     1  LIG1        0.1287
     35 C           3.4665   -4.8925    1.6959 C.3     1  LIG1       -0.0215
     36 C          -0.5983   -3.4179   -2.3138 C.2     1  LIG1        0.0789
     37 C           3.7174    0.1926   -5.1979 C.3     1  LIG1        0.0788
     38 C           4.1189   -3.6774    2.3439 C.3     1  LIG1       -0.0622
     39 H          -0.9574    1.4763   -0.5252 H       1  LIG1        0.0379
     40 H           1.3048    0.9850    1.4242 H       1  LIG1        0.0405
     41 H          -1.8684    0.9868    2.3250 H       1  LIG1        0.0404
     42 H           2.1073   -1.8394    1.0893 H       1  LIG1        0.0657
     43 H          -2.6800   -1.9147    2.4507 H       1  LIG1        0.0622
     44 H          -2.6693   -1.1568   -0.7142 H       1  LIG1        0.0658
     45 H          -3.8158    2.2307    1.7380 H       1  LIG1        0.0622
     46 H          -1.2680   -3.9410    2.7556 H       1  LIG1        0.0654
     47 H           2.8107    2.0693    0.1380 H       1  LIG1        0.0623
     48 H          -6.0775    2.2168    0.7065 H       1  LIG1        0.0655
     49 H           1.7349   -0.6091   -3.8610 H       1  LIG1        0.0691
     50 H           4.2330    2.2292   -1.8532 H       1  LIG1        0.0654
     51 H           2.1641   -3.8814    0.2855 H       1  LIG1        0.0696
     52 H           1.6672   -5.5165    0.6978 H       1  LIG1        0.0696
     53 H          -7.1766   -1.5804   -1.7814 H       1  LIG1        0.1166
     54 H          -6.6337   -0.4810   -3.0697 H       1  LIG1        0.1166
     55 H           1.0543   -2.4210   -3.1680 H       1  LIG1        0.0760
     56 H          -0.5104   -1.6699   -3.6036 H       1  LIG1        0.0760
     57 H           4.1192   -5.2751    0.9044 H       1  LIG1        0.0295
     58 H           3.3760   -5.6758    2.4580 H       1  LIG1        0.0295
     59 H           4.5055    0.4181   -5.9229 H       1  LIG1        0.0660
     60 H           2.7578    0.4396   -5.6643 H       1  LIG1        0.0660
     61 H           3.7827   -0.8752   -4.9623 H       1  LIG1        0.0660
     62 H           4.2573   -2.8713    1.6157 H       1  LIG1        0.0231
     63 H           5.1021   -3.9440    2.7418 H       1  LIG1        0.0231
     64 H           3.5168   -3.2947    3.1735 H       1  LIG1        0.0231
@<TRIPOS>BOND
     1     1    17   ar
     2     2    17   ar
     3     3    20    1
     4     3    32    1
     5     4    21    1
     6     4    34    1
     7     5    26    1
     8     5    33    1
     9     6    30    1
    10     6    33    1
    11     7    31    1
    12     7    37    1
    13     8    36   ar
    14     9    36   ar
    15    10    11    1
    16    10    12    1
    17    10    17    1
    18    11    13    1
    19    11    16    1
    20    12    14    1
    21    12    15    1
    22    13    14   ar
    23    13    18   ar
    24    14    19   ar
    25    15    22   ar
    26    15    23   ar
    27    16    21   ar
    28    16    25   ar
    29    18    20   ar
    30    19    24   ar
    31    20    24   ar
    32    21    28   ar
    33    22    26   ar
    34    23    27   ar
    35    25    29   ar
    36    26    30   ar
    37    27    30   ar
    38    28    31   ar
    39    29    31   ar
    40    32    35    1
    41    34    36    1
    42    35    38    1
    43    10    39    1
    44    11    40    1
    45    12    41    1
    46    18    42    1
    47    19    43    1
    48    22    44    1
    49    23    45    1
    50    24    46    1
    51    25    47    1
    52    27    48    1
    53    28    49    1
    54    29    50    1
    55    32    51    1
    56    32    52    1
    57    33    53    1
    58    33    54    1
    59    34    55    1
    60    34    56    1
    61    35    57    1
    62    35    58    1
    63    37    59    1
    64    37    60    1
    65    37    61    1
    66    38    62    1
    67    38    63    1
    68    38    64    1
@<TRIPOS>MOLECULE
108002
 64 68 0 0 0
SMALL
GASTEIGER

@<TRIPOS>ATOM
      1 O          -0.4613    3.4582   -0.3803 O.co2   1  LIG1       -0.5495
      2 O          -1.1015    3.1472    1.7795 O.co2   1  LIG1       -0.5495
      3 O           1.1491   -4.3022    1.6642 O.3     1  LIG1       -0.4920
      4 O           3.4574    0.9101    0.8198 O.3     1  LIG1       -0.4858
      5 O          -5.5714   -1.5530   -1.2703 O.3     1  LIG1       -0.4526
      6 O          -6.9662    0.3962   -0.9813 O.3     1  LIG1       -0.4526
      7 O           3.9519    0.5959   -4.0571 O.3     1  LIG1       -0.4950
      8 O           5.1319   -0.1129    3.0126 O.co2   1  LIG1       -0.5463
      9 O           6.0816    1.9507    2.7939 O.co2   1  LIG1       -0.5463
     10 C          -0.7862    1.2490    0.3737 C.3     1  LIG1        0.0203
     11 C           0.6228    0.6252    0.6094 C.3     1  LIG1        0.0218
     12 C          -1.7815    0.5092    1.2993 C.3     1  LIG1        0.0184
     13 C           0.2421   -0.7690    1.0818 C.ar    1  LIG1       -0.0320
     14 C          -1.0927   -0.8228    1.4938 C.ar    1  LIG1       -0.0353
     15 C          -3.1823    0.4659    0.6799 C.ar    1  LIG1       -0.0356
     16 C           1.5632    0.6021   -0.6006 C.ar    1  LIG1        0.0026
     17 C          -0.7496    2.7535    0.6313 C.2     1  LIG1        0.0466
     18 C           1.0599   -1.8924    1.1823 C.ar    1  LIG1       -0.0159
     19 C          -1.6118   -1.9794    2.0629 C.ar    1  LIG1       -0.0542
     20 C           0.5065   -3.0939    1.6307 C.ar    1  LIG1        0.1208
     21 C           2.9576    0.7890   -0.4612 C.ar    1  LIG1        0.1283
     22 C          -3.6638   -0.6266   -0.0651 C.ar    1  LIG1       -0.0124
     23 C          -4.0122    1.6061    0.8250 C.ar    1  LIG1       -0.0543
     24 C          -0.8122   -3.1215    2.1069 C.ar    1  LIG1       -0.0196
     25 C           1.0590    0.3384   -1.8906 C.ar    1  LIG1       -0.0510
     26 C          -4.9467   -0.5660   -0.5701 C.ar    1  LIG1        0.1665
     27 C          -5.2985    1.6526    0.2764 C.ar    1  LIG1       -0.0159
     28 C           3.7739    0.8067   -1.6095 C.ar    1  LIG1        0.0221
     29 C           1.8859    0.3393   -3.0147 C.ar    1  LIG1       -0.0194
     30 C          -5.7426    0.5423   -0.4038 C.ar    1  LIG1        0.1662
     31 C           3.2429    0.5991   -2.8837 C.ar    1  LIG1        0.1236
     32 C           2.2400   -4.4671    0.7563 C.3     1  LIG1        0.0893
     33 C          -6.8552   -0.9437   -1.4999 C.3     1  LIG1        0.2332
     34 C           4.8877    1.0586    0.9450 C.3     1  LIG1        0.1287
     35 C           2.1733   -5.8743    0.1598 C.3     1  LIG1       -0.0215
     36 C           5.3669    0.9740    2.4083 C.2     1  LIG1        0.0789
     37 C           5.2531    1.1672   -3.9963 C.3     1  LIG1        0.0788
     38 C           2.2059   -6.9759    1.2078 C.3     1  LIG1       -0.0622
     39 H          -1.1219    1.1182   -0.6616 H       1  LIG1        0.0379
     40 H           1.1058    1.1480    1.4453 H       1  LIG1        0.0405
     41 H          -1.8575    0.9588    2.2976 H       1  LIG1        0.0404
     42 H           2.1078   -1.8070    0.9124 H       1  LIG1        0.0657
     43 H          -2.6291   -2.0042    2.4383 H       1  LIG1        0.0622
     44 H          -3.0555   -1.5047   -0.2484 H       1  LIG1        0.0658
     45 H          -3.6299    2.4775    1.3603 H       1  LIG1        0.0622
     46 H          -1.2173   -4.0467    2.5048 H       1  LIG1        0.0654
     47 H           0.0035    0.1330   -2.0400 H       1  LIG1        0.0623
     48 H          -5.9134    2.5376    0.3830 H       1  LIG1        0.0655
     49 H           4.8361    0.9759   -1.5045 H       1  LIG1        0.0691
     50 H           1.4567    0.1576   -3.9946 H       1  LIG1        0.0654
     51 H           3.1769   -4.3245    1.3059 H       1  LIG1        0.0696
     52 H           2.2096   -3.7646   -0.0844 H       1  LIG1        0.0696
     53 H          -7.6257   -1.5643   -1.0267 H       1  LIG1        0.1166
     54 H          -7.0436   -0.9197   -2.5791 H       1  LIG1        0.1166
     55 H           5.1872    2.0249    0.5218 H       1  LIG1        0.0760
     56 H           5.4025    0.2407    0.4256 H       1  LIG1        0.0760
     57 H           3.0053   -6.0111   -0.5396 H       1  LIG1        0.0295
     58 H           1.2430   -5.9757   -0.4124 H       1  LIG1        0.0295
     59 H           5.6286    1.2491   -5.0209 H       1  LIG1        0.0660
     60 H           5.9396    0.5176   -3.4437 H       1  LIG1        0.0660
     61 H           5.2312    2.1764   -3.5705 H       1  LIG1        0.0660
     62 H           3.1181   -6.9184    1.8090 H       1  LIG1        0.0231
     63 H           2.1786   -7.9561    0.7212 H       1  LIG1        0.0231
     64 H           1.3434   -6.9140    1.8792 H       1  LIG1        0.0231
@<TRIPOS>BOND
     1     1    17   ar
     2     2    17   ar
     3     3    20    1
     4     3    32    1
     5     4    21    1
     6     4    34    1
     7     5    26    1
     8     5    33    1
     9     6    30    1
    10     6    33    1
    11     7    31    1
    12     7    37    1
    13     8    36   ar
    14     9    36   ar
    15    10    11    1
    16    10    12    1
    17    10    17    1
    18    11    13    1
    19    11    16    1
    20    12    14    1
    21    12    15    1
    22    13    14   ar
    23    13    18   ar
    24    14    19   ar
    25    15    22   ar
    26    15    23   ar
    27    16    21   ar
    28    16    25   ar
    29    18    20   ar
    30    19    24   ar
    31    20    24   ar
    32    21    28   ar
    33    22    26   ar
    34    23    27   ar
    35    25    29   ar
    36    26    30   ar
    37    27    30   ar
    38    28    31   ar
    39    29    31   ar
    40    32    35    1
    41    34    36    1
    42    35    38    1
    43    10    39    1
    44    11    40    1
    45    12    41    1
    46    18    42    1
    47    19    43    1
    48    22    44    1
    49    23    45    1
    50    24    46    1
    51    25    47    1
    52    27    48    1
    53    28    49    1
    54    29    50    1
    55    32    51    1
    56    32    52    1
    57    33    53    1
    58    33    54    1
    59    34    55    1
    60    34    56    1
    61    35    57    1
    62    35    58    1
    63    37    59    1
    64    37    60    1
    65    37    61    1
    66    38    62    1
    67    38    63    1
    68    38    64    1
@<TRIPOS>MOLECULE
108002
 64 68 0 0 0
SMALL
GASTEIGER

@<TRIPOS>ATOM
      1 O           0.7203    3.2143    1.0864 O.co2   1  LIG1       -0.5495
      2 O          -1.4416    3.2236    1.7517 O.co2   1  LIG1       -0.5495
      3 O           1.1979   -4.2265    2.0698 O.3     1  LIG1       -0.4920
      4 O          -0.1440   -0.5232   -2.1396 O.3     1  LIG1       -0.4858
      5 O          -5.2339   -1.2728   -1.8422 O.3     1  LIG1       -0.4526
      6 O          -6.8437    0.3928   -1.1730 O.3     1  LIG1       -0.4526
      7 O           4.1787    0.7433   -3.9878 O.3     1  LIG1       -0.4950
      8 O           0.1754   -1.8520   -5.0618 O.co2   1  LIG1       -0.5463
      9 O          -1.9491   -2.0743   -4.2698 O.co2   1  LIG1       -0.5463
     10 C          -0.6598    1.3545    0.4796 C.3     1  LIG1        0.0203
     11 C           0.6571    0.5377    0.5126 C.3     1  LIG1        0.0218
     12 C          -1.7320    0.5300    1.2422 C.3     1  LIG1        0.0184
     13 C           0.2337   -0.8332    0.9854 C.ar    1  LIG1       -0.0320
     14 C          -1.0910   -0.8312    1.4143 C.ar    1  LIG1       -0.0353
     15 C          -3.0994    0.5132    0.5666 C.ar    1  LIG1       -0.0356
     16 C           1.4981    0.5563   -0.7566 C.ar    1  LIG1        0.0026
     17 C          -0.4406    2.7174    1.1655 C.2     1  LIG1        0.0466
     18 C           1.0373   -1.9585    1.1488 C.ar    1  LIG1       -0.0159
     19 C          -1.6477   -1.9633    1.9971 C.ar    1  LIG1       -0.0542
     20 C           0.4980   -3.0861    1.7724 C.ar    1  LIG1        0.1208
     21 C           1.1129    0.0087   -1.9912 C.ar    1  LIG1        0.1283
     22 C          -3.4437   -0.4277   -0.4193 C.ar    1  LIG1       -0.0124
     23 C          -4.0587    1.4841    0.9483 C.ar    1  LIG1       -0.0543
     24 C          -0.8492   -3.0965    2.1617 C.ar    1  LIG1       -0.0196
     25 C           2.7720    1.1561   -0.6715 C.ar    1  LIG1       -0.0510
     26 C          -4.7237   -0.3999   -0.9323 C.ar    1  LIG1        0.1665
     27 C          -5.3423    1.5041    0.3940 C.ar    1  LIG1       -0.0159
     28 C           1.9785    0.0834   -3.0952 C.ar    1  LIG1        0.0221
     29 C           3.6398    1.1899   -1.7645 C.ar    1  LIG1       -0.0194
     30 C          -5.6470    0.5415   -0.5396 C.ar    1  LIG1        0.1662
     31 C           3.2491    0.6496   -2.9841 C.ar    1  LIG1        0.1236
     32 C           2.5936   -4.0370    2.3112 C.3     1  LIG1        0.0893
     33 C          -6.5339   -0.7041   -2.0593 C.3     1  LIG1        0.2332
     34 C          -0.1581   -1.8611   -2.6974 C.3     1  LIG1        0.1287
     35 C           3.0290   -5.0801    3.3376 C.3     1  LIG1       -0.0215
     36 C          -0.7023   -1.8951   -4.1443 C.2     1  LIG1        0.0789
     37 C           3.7926    0.1916   -5.2424 C.3     1  LIG1        0.0788
     38 C           4.5039   -4.9631    3.6743 C.3     1  LIG1       -0.0622
     39 H          -0.9771    1.5616   -0.5504 H       1  LIG1        0.0379
     40 H           1.2866    0.8983    1.3400 H       1  LIG1        0.0405
     41 H          -1.8650    0.9010    2.2682 H       1  LIG1        0.0404
     42 H           2.0650   -1.9245    0.8075 H       1  LIG1        0.0657
     43 H          -2.6800   -1.9602    2.3304 H       1  LIG1        0.0622
     44 H          -2.7316   -1.1644   -0.7803 H       1  LIG1        0.0658
     45 H          -3.7817    2.2446    1.6795 H       1  LIG1        0.0622
     46 H          -1.2675   -3.9849    2.6250 H       1  LIG1        0.0654
     47 H           3.0815    1.6281    0.2604 H       1  LIG1        0.0623
     48 H          -6.0624    2.2567    0.6871 H       1  LIG1        0.0655
     49 H           1.6250   -0.2956   -4.0465 H       1  LIG1        0.0691
     50 H           4.6113    1.6609   -1.6633 H       1  LIG1        0.0654
     51 H           2.8121   -3.0410    2.7192 H       1  LIG1        0.0696
     52 H           3.1387   -4.1732    1.3693 H       1  LIG1        0.0696
     53 H          -7.2859   -1.4875   -1.9124 H       1  LIG1        0.1166
     54 H          -6.5993   -0.3492   -3.0950 H       1  LIG1        0.1166
     55 H          -0.8286   -2.4546   -2.0625 H       1  LIG1        0.0760
     56 H           0.8263   -2.3469   -2.6420 H       1  LIG1        0.0760
     57 H           2.8066   -6.0855    2.9648 H       1  LIG1        0.0295
     58 H           2.4334   -4.9574    4.2495 H       1  LIG1        0.0295
     59 H           4.6330    0.3206   -5.9321 H       1  LIG1        0.0660
     60 H           2.9357    0.7285   -5.6632 H       1  LIG1        0.0660
     61 H           3.5944   -0.8822   -5.1619 H       1  LIG1        0.0660
     62 H           5.1245   -5.1594    2.7935 H       1  LIG1        0.0231
     63 H           4.7745   -5.6877    4.4503 H       1  LIG1        0.0231
     64 H           4.7453   -3.9622    4.0487 H       1  LIG1        0.0231
@<TRIPOS>BOND
     1     1    17   ar
     2     2    17   ar
     3     3    20    1
     4     3    32    1
     5     4    21    1
     6     4    34    1
     7     5    26    1
     8     5    33    1
     9     6    30    1
    10     6    33    1
    11     7    31    1
    12     7    37    1
    13     8    36   ar
    14     9    36   ar
    15    10    11    1
    16    10    12    1
    17    10    17    1
    18    11    13    1
    19    11    16    1
    20    12    14    1
    21    12    15    1
    22    13    14   ar
    23    13    18   ar
    24    14    19   ar
    25    15    22   ar
    26    15    23   ar
    27    16    21   ar
    28    16    25   ar
    29    18    20   ar
    30    19    24   ar
    31    20    24   ar
    32    21    28   ar
    33    22    26   ar
    34    23    27   ar
    35    25    29   ar
    36    26    30   ar
    37    27    30   ar
    38    28    31   ar
    39    29    31   ar
    40    32    35    1
    41    34    36    1
    42    35    38    1
    43    10    39    1
    44    11    40    1
    45    12    41    1
    46    18    42    1
    47    19    43    1
    48    22    44    1
    49    23    45    1
    50    24    46    1
    51    25    47    1
    52    27    48    1
    53    28    49    1
    54    29    50    1
    55    32    51    1
    56    32    52    1
    57    33    53    1
    58    33    54    1
    59    34    55    1
    60    34    56    1
    61    35    57    1
    62    35    58    1
    63    37    59    1
    64    37    60    1
    65    37    61    1
    66    38    62    1
    67    38    63    1
    68    38    64    1
@<TRIPOS>MOLECULE
108002
 64 68 0 0 0
SMALL
GASTEIGER

@<TRIPOS>ATOM
      1 O          -0.3211    3.4327   -0.3187 O.co2   1  LIG1       -0.5495
      2 O          -1.0373    3.1208    1.8147 O.co2   1  LIG1       -0.5495
      3 O           1.2322   -4.1845    2.0553 O.3     1  LIG1       -0.4920
      4 O           3.4847    0.7458    0.7915 O.3     1  LIG1       -0.4858
      5 O          -5.5631   -1.4633   -1.3606 O.3     1  LIG1       -0.4526
      6 O          -6.9338    0.5043   -1.0812 O.3     1  LIG1       -0.4526
      7 O           4.0704    0.2681   -3.9356 O.3     1  LIG1       -0.4950
      8 O           5.9936    1.8379    2.7651 O.co2   1  LIG1       -0.5463
      9 O           5.3484   -0.3468    2.8968 O.co2   1  LIG1       -0.5463
     10 C          -0.7452    1.2266    0.3943 C.3     1  LIG1        0.0203
     11 C           0.6329    0.5361    0.6449 C.3     1  LIG1        0.0218
     12 C          -1.7920    0.5247    1.2890 C.3     1  LIG1        0.0184
     13 C           0.1934   -0.8245    1.1638 C.ar    1  LIG1       -0.0320
     14 C          -1.1536   -0.8226    1.5308 C.ar    1  LIG1       -0.0353
     15 C          -3.1743    0.5127    0.6311 C.ar    1  LIG1       -0.0356
     16 C           1.5534    0.4351   -0.5762 C.ar    1  LIG1        0.0026
     17 C          -0.6613    2.7263    0.6737 C.2     1  LIG1        0.0466
     18 C           0.9734   -1.9608    1.3699 C.ar    1  LIG1       -0.0159
     19 C          -1.7300   -1.9380    2.1265 C.ar    1  LIG1       -0.0542
     20 C           0.3904   -3.1099    1.9206 C.ar    1  LIG1        0.1208
     21 C           2.9539    0.5885   -0.4718 C.ar    1  LIG1        0.1283
     22 C          -3.6581   -0.5690   -0.1274 C.ar    1  LIG1       -0.0124
     23 C          -3.9868    1.6665    0.7657 C.ar    1  LIG1       -0.0543
     24 C          -0.9608   -3.0908    2.2972 C.ar    1  LIG1       -0.0196
     25 C           1.0145    0.1420   -1.8464 C.ar    1  LIG1       -0.0510
     26 C          -4.9322   -0.4871   -0.6510 C.ar    1  LIG1        0.1665
     27 C          -5.2637    1.7344    0.1989 C.ar    1  LIG1       -0.0159
     28 C           3.7390    0.5408   -1.6391 C.ar    1  LIG1        0.0221
     29 C           1.8107    0.0813   -2.9926 C.ar    1  LIG1       -0.0194
     30 C          -5.7143    0.6324   -0.4905 C.ar    1  LIG1        0.1662
     31 C           3.1782    0.2942   -2.8955 C.ar    1  LIG1        0.1236
     32 C           0.6858   -5.3585    2.6501 C.3     1  LIG1        0.0893
     33 C          -6.8398   -0.8391   -1.5933 C.3     1  LIG1        0.2332
     34 C           4.9214    0.8583    0.8790 C.3     1  LIG1        0.1287
     35 C           1.8036   -6.3857    2.8029 C.3     1  LIG1       -0.0215
     36 C           5.4232    0.7880    2.3362 C.2     1  LIG1        0.0789
     37 C           3.5274    0.0526   -5.2298 C.3     1  LIG1        0.0788
     38 C           1.2884   -7.6922    3.3815 C.3     1  LIG1       -0.0622
     39 H          -1.0669    1.1326   -0.6485 H       1  LIG1        0.0379
     40 H           1.1490    1.0604    1.4595 H       1  LIG1        0.0405
     41 H          -1.8901    0.9847    2.2805 H       1  LIG1        0.0404
     42 H           2.0328   -1.9481    1.1232 H       1  LIG1        0.0657
     43 H          -2.7650   -1.9144    2.4518 H       1  LIG1        0.0622
     44 H          -3.0592   -1.4561   -0.3002 H       1  LIG1        0.0658
     45 H          -3.5985    2.5289    1.3119 H       1  LIG1        0.0622
     46 H          -1.4418   -3.9526    2.7432 H       1  LIG1        0.0654
     47 H          -0.0498   -0.0416   -1.9609 H       1  LIG1        0.0623
     48 H          -5.8676    2.6272    0.3013 H       1  LIG1        0.0655
     49 H           4.8116    0.6937   -1.5985 H       1  LIG1        0.0691
     50 H           1.3204   -0.1247   -3.9357 H       1  LIG1        0.0654
     51 H          -0.1012   -5.7683    2.0050 H       1  LIG1        0.0696
     52 H           0.2765   -5.1314    3.6419 H       1  LIG1        0.0696
     53 H          -7.6173   -1.4478   -1.1155 H       1  LIG1        0.1166
     54 H          -7.0288   -0.8187   -2.6722 H       1  LIG1        0.1166
     55 H           5.2359    1.8094    0.4321 H       1  LIG1        0.0760
     56 H           5.4048    0.0217    0.3590 H       1  LIG1        0.0760
     57 H           2.5882   -5.9762    3.4505 H       1  LIG1        0.0295
     58 H           2.2769   -6.5685    1.8311 H       1  LIG1        0.0295
     59 H           4.3539    0.0742   -5.9468 H       1  LIG1        0.0660
     60 H           2.8279    0.8487   -5.5059 H       1  LIG1        0.0660
     61 H           3.0549   -0.9328   -5.3011 H       1  LIG1        0.0660
     62 H           0.8120   -7.5319    4.3541 H       1  LIG1        0.0231
     63 H           2.1125   -8.3990    3.5192 H       1  LIG1        0.0231
     64 H           0.5543   -8.1533    2.7127 H       1  LIG1        0.0231
@<TRIPOS>BOND
     1     1    17   ar
     2     2    17   ar
     3     3    20    1
     4     3    32    1
     5     4    21    1
     6     4    34    1
     7     5    26    1
     8     5    33    1
     9     6    30    1
    10     6    33    1
    11     7    31    1
    12     7    37    1
    13     8    36   ar
    14     9    36   ar
    15    10    11    1
    16    10    12    1
    17    10    17    1
    18    11    13    1
    19    11    16    1
    20    12    14    1
    21    12    15    1
    22    13    14   ar
    23    13    18   ar
    24    14    19   ar
    25    15    22   ar
    26    15    23   ar
    27    16    21   ar
    28    16    25   ar
    29    18    20   ar
    30    19    24   ar
    31    20    24   ar
    32    21    28   ar
    33    22    26   ar
    34    23    27   ar
    35    25    29   ar
    36    26    30   ar
    37    27    30   ar
    38    28    31   ar
    39    29    31   ar
    40    32    35    1
    41    34    36    1
    42    35    38    1
    43    10    39    1
    44    11    40    1
    45    12    41    1
    46    18    42    1
    47    19    43    1
    48    22    44    1
    49    23    45    1
    50    24    46    1
    51    25    47    1
    52    27    48    1
    53    28    49    1
    54    29    50    1
    55    32    51    1
    56    32    52    1
    57    33    53    1
    58    33    54    1
    59    34    55    1
    60    34    56    1
    61    35    57    1
    62    35    58    1
    63    37    59    1
    64    37    60    1
    65    37    61    1
    66    38    62    1
    67    38    63    1
    68    38    64    1
@<TRIPOS>MOLECULE
108002
 64 68 0 0 0
SMALL
GASTEIGER

@<TRIPOS>ATOM
      1 O           0.1151    3.5645    0.1735 O.co2   1  LIG1       -0.5495
      2 O          -1.3372    3.1902    1.8798 O.co2   1  LIG1       -0.5495
      3 O           1.2155   -4.2047    1.6501 O.3     1  LIG1       -0.4920
      4 O           3.5351    0.7941    0.8722 O.3     1  LIG1       -0.4858
      5 O          -6.7115    0.8610    1.4562 O.3     1  LIG1       -0.4526
      6 O          -6.9742    0.2554   -0.8664 O.3     1  LIG1       -0.4526
      7 O           3.9505    0.6171   -4.0217 O.3     1  LIG1       -0.4950
      8 O           5.1550   -0.3410    3.0313 O.co2   1  LIG1       -0.5463
      9 O           6.2661    1.6405    2.8254 O.co2   1  LIG1       -0.5463
     10 C          -0.6826    1.3658    0.4894 C.3     1  LIG1        0.0203
     11 C           0.6856    0.6298    0.6893 C.3     1  LIG1        0.0218
     12 C          -1.7550    0.5760    1.2791 C.3     1  LIG1        0.0184
     13 C           0.2268   -0.7657    1.0834 C.ar    1  LIG1       -0.0320
     14 C          -1.1306   -0.7936    1.3970 C.ar    1  LIG1       -0.0353
     15 C          -3.1368    0.5291    0.6284 C.ar    1  LIG1       -0.0356
     16 C           1.6138    0.6022   -0.5313 C.ar    1  LIG1        0.0026
     17 C          -0.6050    2.8335    0.9131 C.2     1  LIG1        0.0466
     18 C           0.9940   -1.9214    1.2065 C.ar    1  LIG1       -0.0159
     19 C          -1.7356   -1.9605    1.8475 C.ar    1  LIG1       -0.0542
     20 C           0.3838   -3.1198    1.6001 C.ar    1  LIG1        0.1208
     21 C           3.0152    0.7327   -0.4052 C.ar    1  LIG1        0.1283
     22 C          -4.2731    0.7942    1.4142 C.ar    1  LIG1       -0.0124
     23 C          -3.3120    0.1599   -0.7285 C.ar    1  LIG1       -0.0543
     24 C          -0.9739   -3.1272    1.9437 C.ar    1  LIG1       -0.0196
     25 C           1.0836    0.3880   -1.8207 C.ar    1  LIG1       -0.0510
     26 C          -5.5170    0.6747    0.8306 C.ar    1  LIG1        0.1665
     27 C          -4.5848    0.0672   -1.3004 C.ar    1  LIG1       -0.0159
     28 C           3.8156    0.7565   -1.5649 C.ar    1  LIG1        0.0221
     29 C           1.8935    0.3928   -2.9564 C.ar    1  LIG1       -0.0194
     30 C          -5.6677    0.3243   -0.4909 C.ar    1  LIG1        0.1662
     31 C           3.2597    0.6058   -2.8373 C.ar    1  LIG1        0.1236
     32 C           0.6641   -5.5036    1.4570 C.3     1  LIG1        0.0893
     33 C          -7.6229    0.6071    0.3719 C.3     1  LIG1        0.2332
     34 C           4.9713    0.8852    0.9841 C.3     1  LIG1        0.1287
     35 C           0.8232   -5.9663    0.0086 C.3     1  LIG1       -0.0215
     36 C           5.4672    0.7318    2.4362 C.2     1  LIG1        0.0789
     37 C           5.2686    1.1484   -3.9637 C.3     1  LIG1        0.0788
     38 C          -0.0526   -5.2003   -0.9717 C.3     1  LIG1       -0.0622
     39 H          -0.9587    1.4112   -0.5680 H       1  LIG1        0.0379
     40 H           1.2030    1.0766    1.5480 H       1  LIG1        0.0405
     41 H          -1.8489    0.9500    2.3068 H       1  LIG1        0.0404
     42 H           2.0613   -1.8920    0.9992 H       1  LIG1        0.0657
     43 H          -2.7819   -1.9624    2.1350 H       1  LIG1        0.0622
     44 H          -4.1728    1.0831    2.4557 H       1  LIG1        0.0658
     45 H          -2.4425   -0.0660   -1.3420 H       1  LIG1        0.0622
     46 H          -1.4640   -4.0130    2.3256 H       1  LIG1        0.0654
     47 H           0.0207    0.2167   -1.9552 H       1  LIG1        0.0623
     48 H          -4.7093   -0.2054   -2.3407 H       1  LIG1        0.0655
     49 H           4.8844    0.8844   -1.4702 H       1  LIG1        0.0691
     50 H           1.4468    0.2497   -3.9348 H       1  LIG1        0.0654
     51 H          -0.3699   -5.6164    1.7920 H       1  LIG1        0.0696
     52 H           1.2521   -6.1771    2.0918 H       1  LIG1        0.0696
     53 H          -8.2315    1.5036    0.2067 H       1  LIG1        0.1166
     54 H          -8.2873   -0.2162    0.6597 H       1  LIG1        0.1166
     55 H           5.2993    1.8556    0.5920 H       1  LIG1        0.0760
     56 H           5.4502    0.0696    0.4281 H       1  LIG1        0.0760
     57 H           0.5680   -7.0306   -0.0512 H       1  LIG1        0.0295
     58 H           1.8693   -5.8587   -0.3001 H       1  LIG1        0.0295
     59 H           5.6298    1.2541   -4.9914 H       1  LIG1        0.0660
     60 H           5.9444    0.4611   -3.4448 H       1  LIG1        0.0660
     61 H           5.2831    2.1430   -3.5047 H       1  LIG1        0.0660
     62 H          -1.1033   -5.2266   -0.6663 H       1  LIG1        0.0231
     63 H           0.0209   -5.6473   -1.9684 H       1  LIG1        0.0231
     64 H           0.2601   -4.1557   -1.0570 H       1  LIG1        0.0231
@<TRIPOS>BOND
     1     1    17   ar
     2     2    17   ar
     3     3    20    1
     4     3    32    1
     5     4    21    1
     6     4    34    1
     7     5    26    1
     8     5    33    1
     9     6    30    1
    10     6    33    1
    11     7    31    1
    12     7    37    1
    13     8    36   ar
    14     9    36   ar
    15    10    11    1
    16    10    12    1
    17    10    17    1
    18    11    13    1
    19    11    16    1
    20    12    14    1
    21    12    15    1
    22    13    14   ar
    23    13    18   ar
    24    14    19   ar
    25    15    22   ar
    26    15    23   ar
    27    16    21   ar
    28    16    25   ar
    29    18    20   ar
    30    19    24   ar
    31    20    24   ar
    32    21    28   ar
    33    22    26   ar
    34    23    27   ar
    35    25    29   ar
    36    26    30   ar
    37    27    30   ar
    38    28    31   ar
    39    29    31   ar
    40    32    35    1
    41    34    36    1
    42    35    38    1
    43    10    39    1
    44    11    40    1
    45    12    41    1
    46    18    42    1
    47    19    43    1
    48    22    44    1
    49    23    45    1
    50    24    46    1
    51    25    47    1
    52    27    48    1
    53    28    49    1
    54    29    50    1
    55    32    51    1
    56    32    52    1
    57    33    53    1
    58    33    54    1
    59    34    55    1
    60    34    56    1
    61    35    57    1
    62    35    58    1
    63    37    59    1
    64    37    60    1
    65    37    61    1
    66    38    62    1
    67    38    63    1
    68    38    64    1
@<TRIPOS>MOLECULE
108002
 64 68 0 0 0
SMALL
GASTEIGER

@<TRIPOS>ATOM
      1 O           0.1245    2.8293    1.9424 O.co2   1  LIG1       -0.5495
      2 O          -1.2398    3.4674    0.2376 O.co2   1  LIG1       -0.5495
      3 O           0.8508   -4.4370    2.0569 O.3     1  LIG1       -0.4920
      4 O           3.3651   -0.5943    0.5040 O.3     1  LIG1       -0.4858
      5 O          -6.5526    1.6373    1.2491 O.3     1  LIG1       -0.4526
      6 O          -6.9350    0.4905   -0.8413 O.3     1  LIG1       -0.4526
      7 O           4.0410    0.6229   -4.1930 O.3     1  LIG1       -0.4950
      8 O           6.2421   -2.1519   -0.6929 O.co2   1  LIG1       -0.5463
      9 O           4.5224   -3.2778    0.3020 O.co2   1  LIG1       -0.5463
     10 C          -0.6419    1.1957    0.3861 C.3     1  LIG1        0.0203
     11 C           0.6837    0.3761    0.4800 C.3     1  LIG1        0.0218
     12 C          -1.6997    0.5266    1.2955 C.3     1  LIG1        0.0184
     13 C           0.1478   -0.9806    0.9318 C.ar    1  LIG1       -0.0320
     14 C          -1.1404   -0.8641    1.4660 C.ar    1  LIG1       -0.0353
     15 C          -3.0987    0.5060    0.6745 C.ar    1  LIG1       -0.0356
     16 C           1.6038    0.3962   -0.7581 C.ar    1  LIG1        0.0026
     17 C          -0.5589    2.6287    0.9009 C.2     1  LIG1        0.0466
     18 C           0.8137   -2.1985    1.0389 C.ar    1  LIG1       -0.0159
     19 C          -1.7640   -1.9273    2.1144 C.ar    1  LIG1       -0.0542
     20 C           0.2293   -3.2516    1.7548 C.ar    1  LIG1        0.1208
     21 C           2.9407   -0.0795   -0.6970 C.ar    1  LIG1        0.1283
     22 C          -4.1635    1.1477    1.3266 C.ar    1  LIG1       -0.0124
     23 C          -3.3432   -0.1664   -0.5521 C.ar    1  LIG1       -0.0543
     24 C          -1.0696   -3.1247    2.2578 C.ar    1  LIG1       -0.0196
     25 C           1.1861    0.9635   -1.9794 C.ar    1  LIG1       -0.0510
     26 C          -5.4138    1.0871    0.7459 C.ar    1  LIG1        0.1665
     27 C          -4.6182   -0.2056   -1.1208 C.ar    1  LIG1       -0.0159
     28 C           3.7707   -0.0189   -1.8310 C.ar    1  LIG1        0.0221
     29 C           2.0277    1.0248   -3.0947 C.ar    1  LIG1       -0.0194
     30 C          -5.6334    0.4305   -0.4435 C.ar    1  LIG1        0.1662
     31 C           3.3177    0.5198   -3.0331 C.ar    1  LIG1        0.1236
     32 C           2.2824   -4.3635    2.1450 C.3     1  LIG1        0.0893
     33 C          -7.4949    1.2918    0.2160 C.3     1  LIG1        0.2332
     34 C           4.7582   -0.9196    0.6940 C.3     1  LIG1        0.1287
     35 C           2.7298   -5.2112    3.3331 C.3     1  LIG1       -0.0215
     36 C           5.1967   -2.2420    0.0230 C.2     1  LIG1        0.0789
     37 C           5.2911   -0.0597   -4.2081 C.3     1  LIG1        0.0788
     38 C           4.2268   -5.0942    3.5703 C.3     1  LIG1       -0.0622
     39 H          -1.0310    1.2160   -0.6336 H       1  LIG1        0.0379
     40 H           1.2851    0.7680    1.3119 H       1  LIG1        0.0405
     41 H          -1.7426    0.9867    2.2926 H       1  LIG1        0.0404
     42 H           1.8026   -2.3179    0.6105 H       1  LIG1        0.0657
     43 H          -2.7593   -1.8138    2.5303 H       1  LIG1        0.0622
     44 H          -4.0072    1.6877    2.2547 H       1  LIG1        0.0658
     45 H          -2.5196   -0.6630   -1.0647 H       1  LIG1        0.0622
     46 H          -1.5191   -3.9523    2.7964 H       1  LIG1        0.0654
     47 H           0.2019    1.4034   -2.1000 H       1  LIG1        0.0623
     48 H          -4.7943   -0.7151   -2.0600 H       1  LIG1        0.0655
     49 H           4.7823   -0.3975   -1.7724 H       1  LIG1        0.0691
     50 H           1.6646    1.4771   -4.0124 H       1  LIG1        0.0654
     51 H           2.6452   -3.3443    2.3157 H       1  LIG1        0.0696
     52 H           2.6970   -4.7637    1.2160 H       1  LIG1        0.0696
     53 H          -7.8939    2.2161   -0.2186 H       1  LIG1        0.1166
     54 H          -8.3224    0.7362    0.6708 H       1  LIG1        0.1166
     55 H           4.8957   -1.0547    1.7729 H       1  LIG1        0.0760
     56 H           5.3938   -0.0730    0.4047 H       1  LIG1        0.0760
     57 H           2.4536   -6.2594    3.1678 H       1  LIG1        0.0295
     58 H           2.1900   -4.8925    4.2329 H       1  LIG1        0.0295
     59 H           5.7080    0.0379   -5.2153 H       1  LIG1        0.0660
     60 H           5.1649   -1.1286   -4.0046 H       1  LIG1        0.0660
     61 H           5.9999    0.4005   -3.5127 H       1  LIG1        0.0660
     62 H           4.7909   -5.4444    2.7025 H       1  LIG1        0.0231
     63 H           4.5224   -5.6932    4.4374 H       1  LIG1        0.0231
     64 H           4.5102   -4.0544    3.7661 H       1  LIG1        0.0231
@<TRIPOS>BOND
     1     1    17   ar
     2     2    17   ar
     3     3    20    1
     4     3    32    1
     5     4    21    1
     6     4    34    1
     7     5    26    1
     8     5    33    1
     9     6    30    1
    10     6    33    1
    11     7    31    1
    12     7    37    1
    13     8    36   ar
    14     9    36   ar
    15    10    11    1
    16    10    12    1
    17    10    17    1
    18    11    13    1
    19    11    16    1
    20    12    14    1
    21    12    15    1
    22    13    14   ar
    23    13    18   ar
    24    14    19   ar
    25    15    22   ar
    26    15    23   ar
    27    16    21   ar
    28    16    25   ar
    29    18    20   ar
    30    19    24   ar
    31    20    24   ar
    32    21    28   ar
    33    22    26   ar
    34    23    27   ar
    35    25    29   ar
    36    26    30   ar
    37    27    30   ar
    38    28    31   ar
    39    29    31   ar
    40    32    35    1
    41    34    36    1
    42    35    38    1
    43    10    39    1
    44    11    40    1
    45    12    41    1
    46    18    42    1
    47    19    43    1
    48    22    44    1
    49    23    45    1
    50    24    46    1
    51    25    47    1
    52    27    48    1
    53    28    49    1
    54    29    50    1
    55    32    51    1
    56    32    52    1
    57    33    53    1
    58    33    54    1
    59    34    55    1
    60    34    56    1
    61    35    57    1
    62    35    58    1
    63    37    59    1
    64    37    60    1
    65    37    61    1
    66    38    62    1
    67    38    63    1
    68    38    64    1
@<TRIPOS>MOLECULE
108002
 64 68 0 0 0
SMALL
GASTEIGER

@<TRIPOS>ATOM
      1 O          -0.2651    3.3936   -0.3864 O.co2   1  LIG1       -0.5495
      2 O          -0.9924    3.1439    1.7527 O.co2   1  LIG1       -0.5495
      3 O           1.2900   -4.1734    2.1140 O.3     1  LIG1       -0.4920
      4 O           3.5275    0.5093    0.7108 O.3     1  LIG1       -0.4858
      5 O          -5.5444   -1.5398   -1.2115 O.3     1  LIG1       -0.4526
      6 O          -6.9021    0.4440   -0.9872 O.3     1  LIG1       -0.4526
      7 O           4.0225    0.4750   -4.0631 O.3     1  LIG1       -0.4950
      8 O           6.4165    0.9734    2.5682 O.co2   1  LIG1       -0.5463
      9 O           5.0063   -0.7937    2.8686 O.co2   1  LIG1       -0.5463
     10 C          -0.7204    1.2108    0.3788 C.3     1  LIG1        0.0203
     11 C           0.6679    0.5237    0.5793 C.3     1  LIG1        0.0218
     12 C          -1.7308    0.5199    1.3220 C.3     1  LIG1        0.0184
     13 C           0.2492   -0.8344    1.1189 C.ar    1  LIG1       -0.0320
     14 C          -1.0776   -0.8208    1.5618 C.ar    1  LIG1       -0.0353
     15 C          -3.1307    0.4856    0.7009 C.ar    1  LIG1       -0.0356
     16 C           1.5686    0.4387   -0.6586 C.ar    1  LIG1        0.0026
     17 C          -0.6187    2.7165    0.6238 C.2     1  LIG1        0.0466
     18 C           1.0383   -1.9657    1.3110 C.ar    1  LIG1       -0.0159
     19 C          -1.6185   -1.9110    2.2358 C.ar    1  LIG1       -0.0542
     20 C           0.4734   -3.0932    1.9133 C.ar    1  LIG1        0.1208
     21 C           2.9793    0.4870   -0.5558 C.ar    1  LIG1        0.1283
     22 C          -3.6289   -0.6192   -0.0142 C.ar    1  LIG1       -0.0124
     23 C          -3.9386    1.6452    0.8095 C.ar    1  LIG1       -0.0543
     24 C          -0.8386   -3.0538    2.4045 C.ar    1  LIG1       -0.0196
     25 C           1.0083    0.2853   -1.9439 C.ar    1  LIG1       -0.0510
     26 C          -4.9062   -0.5472   -0.5319 C.ar    1  LIG1        0.1665
     27 C          -5.2209    1.7008    0.2521 C.ar    1  LIG1       -0.0159
     28 C           3.7574    0.4971   -1.7283 C.ar    1  LIG1        0.0221
     29 C           1.7941    0.2909   -3.0977 C.ar    1  LIG1       -0.0194
     30 C          -5.6808    0.5811   -0.4020 C.ar    1  LIG1        0.1662
     31 C           3.1691    0.4359   -2.9908 C.ar    1  LIG1        0.1236
     32 C           0.7527   -5.4082    1.6410 C.3     1  LIG1        0.0893
     33 C          -6.8122   -0.9096   -1.4730 C.3     1  LIG1        0.2332
     34 C           4.9648    0.3867    0.7848 C.3     1  LIG1        0.1287
     35 C           1.4255   -6.5543    2.3940 C.3     1  LIG1       -0.0215
     36 C           5.4725    0.1915    2.2278 C.2     1  LIG1        0.0789
     37 C           3.5146    1.2147   -5.1689 C.3     1  LIG1        0.0788
     38 C           1.1815   -6.4766    3.8955 C.3     1  LIG1       -0.0622
     39 H          -1.0892    1.0975   -0.6460 H       1  LIG1        0.0379
     40 H           1.2037    1.0541    1.3783 H       1  LIG1        0.0405
     41 H          -1.8003    1.0007    2.3058 H       1  LIG1        0.0404
     42 H           2.0881   -1.9628    1.0285 H       1  LIG1        0.0657
     43 H          -2.6240   -1.8649    2.6405 H       1  LIG1        0.0622
     44 H          -3.0359   -1.5143   -0.1652 H       1  LIG1        0.0658
     45 H          -3.5416    2.5236    1.3225 H       1  LIG1        0.0622
     46 H          -1.2446   -3.8897    2.9627 H       1  LIG1        0.0654
     47 H          -0.0633    0.1716   -2.0710 H       1  LIG1        0.0623
     48 H          -5.8194    2.5996    0.3300 H       1  LIG1        0.0655
     49 H           4.8376    0.5767   -1.6861 H       1  LIG1        0.0691
     50 H           1.3038    0.1847   -4.0575 H       1  LIG1        0.0654
     51 H           0.9735   -5.4961    0.5706 H       1  LIG1        0.0696
     52 H          -0.3325   -5.4909    1.7676 H       1  LIG1        0.0696
     53 H          -7.6015   -1.5027   -0.9953 H       1  LIG1        0.1166
     54 H          -6.9863   -0.9074   -2.5550 H       1  LIG1        0.1166
     55 H           5.4233    1.2925    0.3701 H       1  LIG1        0.0760
     56 H           5.2996   -0.4972    0.2273 H       1  LIG1        0.0760
     57 H           2.5066   -6.5265    2.2166 H       1  LIG1        0.0295
     58 H           1.0501   -7.5106    2.0135 H       1  LIG1        0.0295
     59 H           4.3561    1.4468   -5.8289 H       1  LIG1        0.0660
     60 H           3.0655    2.1643   -4.8558 H       1  LIG1        0.0660
     61 H           2.8004    0.6147   -5.7416 H       1  LIG1        0.0660
     62 H           1.6220   -5.5697    4.3228 H       1  LIG1        0.0231
     63 H           1.6345   -7.3364    4.3986 H       1  LIG1        0.0231
     64 H           0.1101   -6.4749    4.1202 H       1  LIG1        0.0231
@<TRIPOS>BOND
     1     1    17   ar
     2     2    17   ar
     3     3    20    1
     4     3    32    1
     5     4    21    1
     6     4    34    1
     7     5    26    1
     8     5    33    1
     9     6    30    1
    10     6    33    1
    11     7    31    1
    12     7    37    1
    13     8    36   ar
    14     9    36   ar
    15    10    11    1
    16    10    12    1
    17    10    17    1
    18    11    13    1
    19    11    16    1
    20    12    14    1
    21    12    15    1
    22    13    14   ar
    23    13    18   ar
    24    14    19   ar
    25    15    22   ar
    26    15    23   ar
    27    16    21   ar
    28    16    25   ar
    29    18    20   ar
    30    19    24   ar
    31    20    24   ar
    32    21    28   ar
    33    22    26   ar
    34    23    27   ar
    35    25    29   ar
    36    26    30   ar
    37    27    30   ar
    38    28    31   ar
    39    29    31   ar
    40    32    35    1
    41    34    36    1
    42    35    38    1
    43    10    39    1
    44    11    40    1
    45    12    41    1
    46    18    42    1
    47    19    43    1
    48    22    44    1
    49    23    45    1
    50    24    46    1
    51    25    47    1
    52    27    48    1
    53    28    49    1
    54    29    50    1
    55    32    51    1
    56    32    52    1
    57    33    53    1
    58    33    54    1
    59    34    55    1
    60    34    56    1
    61    35    57    1
    62    35    58    1
    63    37    59    1
    64    37    60    1
    65    37    61    1
    66    38    62    1
    67    38    63    1
    68    38    64    1
@<TRIPOS>MOLECULE
108002
 64 68 0 0 0
SMALL
GASTEIGER

@<TRIPOS>ATOM
      1 O           0.0698    2.7676    2.0575 O.co2   1  LIG1       -0.5495
      2 O          -1.2042    3.5365    0.3447 O.co2   1  LIG1       -0.5495
      3 O           1.0416   -4.3282    2.1697 O.3     1  LIG1       -0.4920
      4 O           0.1736   -1.1674   -1.8504 O.3     1  LIG1       -0.4858
      5 O          -5.3141   -1.2658   -1.7825 O.3     1  LIG1       -0.4526
      6 O          -6.8604    0.4795   -1.1663 O.3     1  LIG1       -0.4526
      7 O           4.1054    0.4905   -3.9825 O.3     1  LIG1       -0.4950
      8 O           0.7399   -2.9777   -4.2701 O.co2   1  LIG1       -0.5463
      9 O          -1.3871   -3.4807   -3.6266 O.co2   1  LIG1       -0.5463
     10 C          -0.6819    1.2267    0.3960 C.3     1  LIG1        0.0203
     11 C           0.6409    0.4474    0.5592 C.3     1  LIG1        0.0218
     12 C          -1.7512    0.5033    1.2505 C.3     1  LIG1        0.0184
     13 C           0.1970   -0.8934    1.0923 C.ar    1  LIG1       -0.0320
     14 C          -1.1409   -0.8609    1.4871 C.ar    1  LIG1       -0.0353
     15 C          -3.1272    0.5001    0.5950 C.ar    1  LIG1       -0.0356
     16 C           1.5115    0.4376   -0.6930 C.ar    1  LIG1        0.0026
     17 C          -0.5842    2.6360    0.9824 C.2     1  LIG1        0.0466
     18 C           0.9788   -2.0289    1.2901 C.ar    1  LIG1       -0.0159
     19 C          -1.7265   -1.9735    2.0748 C.ar    1  LIG1       -0.0542
     20 C           0.4015   -3.1508    1.8853 C.ar    1  LIG1        0.1208
     21 C           1.2606   -0.3315   -1.8468 C.ar    1  LIG1        0.1283
     22 C          -3.5079   -0.4662   -0.3536 C.ar    1  LIG1       -0.0124
     23 C          -4.0403    1.5307    0.9287 C.ar    1  LIG1       -0.0543
     24 C          -0.9536   -3.1229    2.2542 C.ar    1  LIG1       -0.0196
     25 C           2.6331    1.2926   -0.6909 C.ar    1  LIG1       -0.0510
     26 C          -4.7797   -0.3977   -0.8821 C.ar    1  LIG1        0.1665
     27 C          -5.3208    1.5808    0.3700 C.ar    1  LIG1       -0.0159
     28 C           2.1659   -0.2891   -2.9173 C.ar    1  LIG1        0.0221
     29 C           3.5173    1.3404   -1.7703 C.ar    1  LIG1       -0.0194
     30 C          -5.6628    0.5957   -0.5288 C.ar    1  LIG1        0.1662
     31 C           3.2970    0.5274   -2.8767 C.ar    1  LIG1        0.1236
     32 C           2.4679   -4.3165    2.2050 C.3     1  LIG1        0.0893
     33 C          -6.6078   -0.6789   -1.9890 C.3     1  LIG1        0.2332
     34 C          -0.5278   -1.3141   -3.1054 C.3     1  LIG1        0.1287
     35 C           3.0078   -3.6633    3.4806 C.3     1  LIG1       -0.0215
     36 C          -0.3631   -2.7338   -3.6924 C.2     1  LIG1        0.0789
     37 C           5.4891    0.6617   -3.7104 C.3     1  LIG1        0.0788
     38 C           2.4413   -4.2991    4.7436 C.3     1  LIG1       -0.0622
     39 H          -0.9807    1.2847   -0.6593 H       1  LIG1        0.0379
     40 H           1.2490    0.8641    1.3730 H       1  LIG1        0.0405
     41 H          -1.8524    0.9563    2.2475 H       1  LIG1        0.0404
     42 H           2.0100   -2.0019    0.9641 H       1  LIG1        0.0657
     43 H          -2.7663   -1.9551    2.3803 H       1  LIG1        0.0622
     44 H          -2.8256   -1.2500   -0.6723 H       1  LIG1        0.0658
     45 H          -3.7265    2.3173    1.6158 H       1  LIG1        0.0622
     46 H          -1.4026   -4.0060    2.6977 H       1  LIG1        0.0654
     47 H           2.8125    1.9392    0.1676 H       1  LIG1        0.0623
     48 H          -6.0079    2.3772    0.6239 H       1  LIG1        0.0655
     49 H           2.0182   -0.9258   -3.7853 H       1  LIG1        0.0691
     50 H           4.3534    2.0273   -1.7246 H       1  LIG1        0.0654
     51 H           2.9027   -3.8772    1.3013 H       1  LIG1        0.0696
     52 H           2.7817   -5.3673    2.1957 H       1  LIG1        0.0696
     53 H          -7.3728   -1.4326   -1.7686 H       1  LIG1        0.1166
     54 H          -6.7007   -0.3875   -3.0419 H       1  LIG1        0.1166
     55 H          -0.2516   -0.5539   -3.8464 H       1  LIG1        0.0760
     56 H          -1.5890   -1.1469   -2.8869 H       1  LIG1        0.0760
     57 H           2.7628   -2.5957    3.4944 H       1  LIG1        0.0295
     58 H           4.1002   -3.7436    3.4912 H       1  LIG1        0.0295
     59 H           6.0456    0.3404   -4.5967 H       1  LIG1        0.0660
     60 H           5.8187    0.0422   -2.8687 H       1  LIG1        0.0660
     61 H           5.7246    1.7162   -3.5362 H       1  LIG1        0.0660
     62 H           1.3555   -4.1758    4.8000 H       1  LIG1        0.0231
     63 H           2.8769   -3.8286    5.6305 H       1  LIG1        0.0231
     64 H           2.6686   -5.3685    4.7789 H       1  LIG1        0.0231
@<TRIPOS>BOND
     1     1    17   ar
     2     2    17   ar
     3     3    20    1
     4     3    32    1
     5     4    21    1
     6     4    34    1
     7     5    26    1
     8     5    33    1
     9     6    30    1
    10     6    33    1
    11     7    31    1
    12     7    37    1
    13     8    36   ar
    14     9    36   ar
    15    10    11    1
    16    10    12    1
    17    10    17    1
    18    11    13    1
    19    11    16    1
    20    12    14    1
    21    12    15    1
    22    13    14   ar
    23    13    18   ar
    24    14    19   ar
    25    15    22   ar
    26    15    23   ar
    27    16    21   ar
    28    16    25   ar
    29    18    20   ar
    30    19    24   ar
    31    20    24   ar
    32    21    28   ar
    33    22    26   ar
    34    23    27   ar
    35    25    29   ar
    36    26    30   ar
    37    27    30   ar
    38    28    31   ar
    39    29    31   ar
    40    32    35    1
    41    34    36    1
    42    35    38    1
    43    10    39    1
    44    11    40    1
    45    12    41    1
    46    18    42    1
    47    19    43    1
    48    22    44    1
    49    23    45    1
    50    24    46    1
    51    25    47    1
    52    27    48    1
    53    28    49    1
    54    29    50    1
    55    32    51    1
    56    32    52    1
    57    33    53    1
    58    33    54    1
    59    34    55    1
    60    34    56    1
    61    35    57    1
    62    35    58    1
    63    37    59    1
    64    37    60    1
    65    37    61    1
    66    38    62    1
    67    38    63    1
    68    38    64    1
@<TRIPOS>MOLECULE
108002
 64 68 0 0 0
SMALL
GASTEIGER

@<TRIPOS>ATOM
      1 O           0.7122    3.1389    1.4358 O.co2   1  LIG1       -0.5495
      2 O          -1.5474    3.3140    1.3955 O.co2   1  LIG1       -0.5495
      3 O           1.1326   -4.3459    1.9380 O.3     1  LIG1       -0.4920
      4 O           0.1422   -1.0366   -1.7592 O.3     1  LIG1       -0.4858
      5 O          -4.8269    0.3360   -2.6074 O.3     1  LIG1       -0.4526
      6 O          -6.7683    0.5110   -1.1814 O.3     1  LIG1       -0.4526
      7 O           4.0535    0.9161   -3.9908 O.3     1  LIG1       -0.4950
      8 O           0.4541   -4.1013   -2.0425 O.co2   1  LIG1       -0.5463
      9 O          -1.7428   -3.6528   -2.4811 O.co2   1  LIG1       -0.5463
     10 C          -0.5627    1.3211    0.5453 C.3     1  LIG1        0.0203
     11 C           0.7468    0.4990    0.6530 C.3     1  LIG1        0.0218
     12 C          -1.6762    0.5198    1.2801 C.3     1  LIG1        0.0184
     13 C           0.2879   -0.8530    1.1305 C.ar    1  LIG1       -0.0320
     14 C          -1.0702   -0.8551    1.4469 C.ar    1  LIG1       -0.0353
     15 C          -3.0499    0.5031    0.6154 C.ar    1  LIG1       -0.0356
     16 C           1.5728    0.4980   -0.6355 C.ar    1  LIG1        0.0026
     17 C          -0.4518    2.7107    1.1904 C.2     1  LIG1        0.0466
     18 C           1.0700   -1.9890    1.3021 C.ar    1  LIG1       -0.0159
     19 C          -1.6717   -2.0128    1.9227 C.ar    1  LIG1       -0.0542
     20 C           0.4660   -3.1655    1.7415 C.ar    1  LIG1        0.1208
     21 C           1.2372   -0.2112   -1.8112 C.ar    1  LIG1        0.1283
     22 C          -3.2148    0.3693   -0.7740 C.ar    1  LIG1       -0.0124
     23 C          -4.2037    0.6049    1.4348 C.ar    1  LIG1       -0.0543
     24 C          -0.8988   -3.1693    2.0651 C.ar    1  LIG1       -0.0196
     25 C           2.7310    1.3017   -0.6413 C.ar    1  LIG1       -0.0510
     26 C          -4.4959    0.3969   -1.2875 C.ar    1  LIG1        0.1665
     27 C          -5.4919    0.5975    0.8911 C.ar    1  LIG1       -0.0159
     28 C           2.0288   -0.0397   -2.9601 C.ar    1  LIG1        0.0221
     29 C           3.5426    1.3978   -1.7712 C.ar    1  LIG1       -0.0194
     30 C          -5.6031    0.5051   -0.4773 C.ar    1  LIG1        0.1662
     31 C           3.1928    0.7330   -2.9395 C.ar    1  LIG1        0.1236
     32 C           2.1518   -4.6287    0.9698 C.3     1  LIG1        0.0893
     33 C          -6.2593    0.4185   -2.5271 C.3     1  LIG1        0.2332
     34 C          -0.1296   -1.9359   -2.8510 C.3     1  LIG1        0.1287
     35 C           3.5081   -4.5976    1.6728 C.3     1  LIG1       -0.0215
     36 C          -0.5191   -3.3445   -2.3531 C.2     1  LIG1        0.0789
     37 C           3.7669    0.1823   -5.1755 C.3     1  LIG1        0.0788
     38 C           4.6596   -4.8224    0.7103 C.3     1  LIG1       -0.0622
     39 H          -0.8112    1.5063   -0.5065 H       1  LIG1        0.0379
     40 H           1.3768    0.8717    1.4717 H       1  LIG1        0.0405
     41 H          -1.7926    0.9195    2.2979 H       1  LIG1        0.0404
     42 H           2.1275   -1.9401    1.0682 H       1  LIG1        0.0657
     43 H          -2.7296   -2.0313    2.1616 H       1  LIG1        0.0622
     44 H          -2.3649    0.2497   -1.4366 H       1  LIG1        0.0658
     45 H          -4.0832    0.7022    2.5122 H       1  LIG1        0.0622
     46 H          -1.3633   -4.0899    2.4018 H       1  LIG1        0.0654
     47 H           2.9900    1.8742    0.2484 H       1  LIG1        0.0623
     48 H          -6.3658    0.6780    1.5225 H       1  LIG1        0.0655
     49 H           1.7272   -0.5063   -3.8864 H       1  LIG1        0.0691
     50 H           4.4356    2.0143   -1.7375 H       1  LIG1        0.0654
     51 H           2.1336   -3.9658    0.0979 H       1  LIG1        0.0696
     52 H           1.9620   -5.6405    0.5928 H       1  LIG1        0.0696
     53 H          -6.6905   -0.4694   -3.0045 H       1  LIG1        0.1166
     54 H          -6.5900    1.3049   -3.0831 H       1  LIG1        0.1166
     55 H           0.7261   -2.1121   -3.5067 H       1  LIG1        0.0760
     56 H          -0.9412   -1.5061   -3.4473 H       1  LIG1        0.0760
     57 H           3.5258   -5.3639    2.4577 H       1  LIG1        0.0295
     58 H           3.6425   -3.6395    2.1892 H       1  LIG1        0.0295
     59 H           4.5760    0.3684   -5.8877 H       1  LIG1        0.0660
     60 H           2.8354    0.5300   -5.6346 H       1  LIG1        0.0660
     61 H           3.7383   -0.8954   -4.9847 H       1  LIG1        0.0660
     62 H           4.5561   -5.7785    0.1874 H       1  LIG1        0.0231
     63 H           5.6099   -4.8335    1.2536 H       1  LIG1        0.0231
     64 H           4.7062   -4.0237   -0.0360 H       1  LIG1        0.0231
@<TRIPOS>BOND
     1     1    17   ar
     2     2    17   ar
     3     3    20    1
     4     3    32    1
     5     4    21    1
     6     4    34    1
     7     5    26    1
     8     5    33    1
     9     6    30    1
    10     6    33    1
    11     7    31    1
    12     7    37    1
    13     8    36   ar
    14     9    36   ar
    15    10    11    1
    16    10    12    1
    17    10    17    1
    18    11    13    1
    19    11    16    1
    20    12    14    1
    21    12    15    1
    22    13    14   ar
    23    13    18   ar
    24    14    19   ar
    25    15    22   ar
    26    15    23   ar
    27    16    21   ar
    28    16    25   ar
    29    18    20   ar
    30    19    24   ar
    31    20    24   ar
    32    21    28   ar
    33    22    26   ar
    34    23    27   ar
    35    25    29   ar
    36    26    30   ar
    37    27    30   ar
    38    28    31   ar
    39    29    31   ar
    40    32    35    1
    41    34    36    1
    42    35    38    1
    43    10    39    1
    44    11    40    1
    45    12    41    1
    46    18    42    1
    47    19    43    1
    48    22    44    1
    49    23    45    1
    50    24    46    1
    51    25    47    1
    52    27    48    1
    53    28    49    1
    54    29    50    1
    55    32    51    1
    56    32    52    1
    57    33    53    1
    58    33    54    1
    59    34    55    1
    60    34    56    1
    61    35    57    1
    62    35    58    1
    63    37    59    1
    64    37    60    1
    65    37    61    1
    66    38    62    1
    67    38    63    1
    68    38    64    1
@<TRIPOS>MOLECULE
108002
 64 68 0 0 0
SMALL
GASTEIGER

@<TRIPOS>ATOM
      1 O          -0.3159    2.8485    2.2882 O.co2   1  LIG1       -0.5495
      2 O          -1.0667    3.6188    0.2826 O.co2   1  LIG1       -0.5495
      3 O           1.1355   -4.2707    1.8713 O.3     1  LIG1       -0.4920
      4 O           3.5813    0.7007    0.7787 O.3     1  LIG1       -0.4858
      5 O          -6.6905    0.5963    1.4922 O.3     1  LIG1       -0.4526
      6 O          -6.9626    0.3446   -0.8939 O.3     1  LIG1       -0.4526
      7 O           4.0781    0.4346   -3.9744 O.3     1  LIG1       -0.4950
      8 O           6.3183    1.7862    2.6656 O.co2   1  LIG1       -0.5463
      9 O           5.3583   -0.2758    2.8364 O.co2   1  LIG1       -0.5463
     10 C          -0.6178    1.3191    0.4880 C.3     1  LIG1        0.0203
     11 C           0.7219    0.5381    0.6800 C.3     1  LIG1        0.0218
     12 C          -1.7310    0.5496    1.2456 C.3     1  LIG1        0.0184
     13 C           0.2228   -0.8446    1.0700 C.ar    1  LIG1       -0.0320
     14 C          -1.1402   -0.8354    1.3688 C.ar    1  LIG1       -0.0353
     15 C          -3.1144    0.5368    0.5947 C.ar    1  LIG1       -0.0356
     16 C           1.6221    0.5012   -0.5656 C.ar    1  LIG1        0.0026
     17 C          -0.6404    2.7269    1.0779 C.2     1  LIG1        0.0466
     18 C           0.9692   -2.0107    1.2375 C.ar    1  LIG1       -0.0159
     19 C          -1.7725   -1.9769    1.8462 C.ar    1  LIG1       -0.0542
     20 C           0.3322   -3.1784    1.6765 C.ar    1  LIG1        0.1208
     21 C           3.0263    0.6277   -0.4803 C.ar    1  LIG1        0.1283
     22 C          -4.2524    0.6288    1.4198 C.ar    1  LIG1       -0.0124
     23 C          -3.2962    0.3664   -0.7986 C.ar    1  LIG1       -0.0543
     24 C          -1.0306   -3.1485    2.0019 C.ar    1  LIG1       -0.0196
     25 C           1.0549    0.2936   -1.8415 C.ar    1  LIG1       -0.0510
     26 C          -5.4992    0.5520    0.8356 C.ar    1  LIG1        0.1665
     27 C          -4.5732    0.3119   -1.3676 C.ar    1  LIG1       -0.0159
     28 C           3.7896    0.6181   -1.6627 C.ar    1  LIG1        0.0221
     29 C           1.8288    0.2774   -3.0047 C.ar    1  LIG1       -0.0194
     30 C          -5.6546    0.4025   -0.5221 C.ar    1  LIG1        0.1662
     31 C           3.2034    0.4400   -2.9193 C.ar    1  LIG1        0.1236
     32 C           0.5741   -5.5426    1.5485 C.3     1  LIG1        0.0893
     33 C          -7.6068    0.4916    0.3870 C.3     1  LIG1        0.2332
     34 C           4.9865    1.0204    0.8556 C.3     1  LIG1        0.1287
     35 C           1.2906   -6.5957    2.3908 C.3     1  LIG1       -0.0215
     36 C           5.5634    0.8406    2.2755 C.2     1  LIG1        0.0789
     37 C           3.5497    0.0377   -5.2313 C.3     1  LIG1        0.0788
     38 C           0.6818   -7.9761    2.2145 C.3     1  LIG1       -0.0622
     39 H          -0.8644    1.4322   -0.5694 H       1  LIG1        0.0379
     40 H           1.2742    0.9574    1.5290 H       1  LIG1        0.0405
     41 H          -1.8395    0.9300    2.2708 H       1  LIG1        0.0404
     42 H           2.0423   -2.0012    1.0599 H       1  LIG1        0.0657
     43 H          -2.8175   -1.9501    2.1356 H       1  LIG1        0.0622
     44 H          -4.1528    0.7510    2.4934 H       1  LIG1        0.0658
     45 H          -2.4333    0.2745   -1.4520 H       1  LIG1        0.0622
     46 H          -1.5284   -4.0046    2.4400 H       1  LIG1        0.0654
     47 H          -0.0144    0.1371   -1.9440 H       1  LIG1        0.0623
     48 H          -4.7011    0.1990   -2.4370 H       1  LIG1        0.0655
     49 H           4.8672    0.7294   -1.6368 H       1  LIG1        0.0691
     50 H           1.3193    0.1431   -3.9507 H       1  LIG1        0.0654
     51 H           0.7402   -5.7351    0.4822 H       1  LIG1        0.0696
     52 H          -0.4994   -5.6137    1.7405 H       1  LIG1        0.0696
     53 H          -8.2332    1.3909    0.3639 H       1  LIG1        0.1166
     54 H          -8.2531   -0.3786    0.5512 H       1  LIG1        0.1166
     55 H           5.1314    2.0550    0.5239 H       1  LIG1        0.0760
     56 H           5.5789    0.3356    0.2381 H       1  LIG1        0.0760
     57 H           1.2483   -6.3095    3.4488 H       1  LIG1        0.0295
     58 H           2.3541   -6.6180    2.1252 H       1  LIG1        0.0295
     59 H           4.3808   -0.0149   -5.9416 H       1  LIG1        0.0660
     60 H           2.8357    0.7759   -5.6101 H       1  LIG1        0.0660
     61 H           3.0983   -0.9591   -5.1778 H       1  LIG1        0.0660
     62 H          -0.3692   -7.9820    2.5240 H       1  LIG1        0.0231
     63 H           1.2169   -8.7081    2.8274 H       1  LIG1        0.0231
     64 H           0.7338   -8.2999    1.1707 H       1  LIG1        0.0231
@<TRIPOS>BOND
     1     1    17   ar
     2     2    17   ar
     3     3    20    1
     4     3    32    1
     5     4    21    1
     6     4    34    1
     7     5    26    1
     8     5    33    1
     9     6    30    1
    10     6    33    1
    11     7    31    1
    12     7    37    1
    13     8    36   ar
    14     9    36   ar
    15    10    11    1
    16    10    12    1
    17    10    17    1
    18    11    13    1
    19    11    16    1
    20    12    14    1
    21    12    15    1
    22    13    14   ar
    23    13    18   ar
    24    14    19   ar
    25    15    22   ar
    26    15    23   ar
    27    16    21   ar
    28    16    25   ar
    29    18    20   ar
    30    19    24   ar
    31    20    24   ar
    32    21    28   ar
    33    22    26   ar
    34    23    27   ar
    35    25    29   ar
    36    26    30   ar
    37    27    30   ar
    38    28    31   ar
    39    29    31   ar
    40    32    35    1
    41    34    36    1
    42    35    38    1
    43    10    39    1
    44    11    40    1
    45    12    41    1
    46    18    42    1
    47    19    43    1
    48    22    44    1
    49    23    45    1
    50    24    46    1
    51    25    47    1
    52    27    48    1
    53    28    49    1
    54    29    50    1
    55    32    51    1
    56    32    52    1
    57    33    53    1
    58    33    54    1
    59    34    55    1
    60    34    56    1
    61    35    57    1
    62    35    58    1
    63    37    59    1
    64    37    60    1
    65    37    61    1
    66    38    62    1
    67    38    63    1
    68    38    64    1
@<TRIPOS>MOLECULE
108002
 64 68 0 0 0
SMALL
GASTEIGER

@<TRIPOS>ATOM
      1 O          -0.1111    2.6610    2.3347 O.co2   1  LIG1       -0.5495
      2 O          -0.4153    3.6196    0.2986 O.co2   1  LIG1       -0.5495
      3 O           1.1316   -4.3138    2.1652 O.3     1  LIG1       -0.4920
      4 O           0.1396   -1.0905   -1.8518 O.3     1  LIG1       -0.4858
      5 O          -6.6423    0.9448    1.4821 O.3     1  LIG1       -0.4526
      6 O          -6.9394    0.2415   -0.8086 O.3     1  LIG1       -0.4526
      7 O           4.2428    0.6817   -3.8902 O.3     1  LIG1       -0.4950
      8 O          -2.3966   -2.2789   -3.1866 O.co2   1  LIG1       -0.5463
      9 O          -1.0634   -4.0645   -2.6852 O.co2   1  LIG1       -0.5463
     10 C          -0.6237    1.2649    0.4657 C.3     1  LIG1        0.0203
     11 C           0.6959    0.4670    0.5859 C.3     1  LIG1        0.0218
     12 C          -1.6980    0.5055    1.2845 C.3     1  LIG1        0.0184
     13 C           0.2567   -0.8805    1.1025 C.ar    1  LIG1       -0.0320
     14 C          -1.0875   -0.8669    1.4721 C.ar    1  LIG1       -0.0353
     15 C          -3.0833    0.4707    0.6541 C.ar    1  LIG1       -0.0356
     16 C           1.5414    0.4591   -0.6853 C.ar    1  LIG1        0.0026
     17 C          -0.3676    2.6366    1.0947 C.2     1  LIG1        0.0466
     18 C           1.0476   -2.0096    1.3018 C.ar    1  LIG1       -0.0159
     19 C          -1.6783   -2.0035    2.0054 C.ar    1  LIG1       -0.0542
     20 C           0.4736   -3.1470    1.8719 C.ar    1  LIG1        0.1208
     21 C           1.2718   -0.3033   -1.8414 C.ar    1  LIG1        0.1283
     22 C          -4.2078    0.8033    1.4314 C.ar    1  LIG1       -0.0124
     23 C          -3.2781    0.0430   -0.6811 C.ar    1  LIG1       -0.0543
     24 C          -0.8938   -3.1460    2.1910 C.ar    1  LIG1       -0.0196
     25 C           2.6760    1.2991   -0.6844 C.ar    1  LIG1       -0.0510
     26 C          -5.4579    0.6954    0.8579 C.ar    1  LIG1        0.1665
     27 C          -4.5565   -0.0425   -1.2423 C.ar    1  LIG1       -0.0159
     28 C           2.1626   -0.2313   -2.9315 C.ar    1  LIG1        0.0221
     29 C           3.5491    1.3481   -1.7705 C.ar    1  LIG1       -0.0194
     30 C          -5.6277    0.2878   -0.4458 C.ar    1  LIG1        0.1662
     31 C           3.3063    0.5706   -2.8949 C.ar    1  LIG1        0.1236
     32 C           2.5542   -4.2591    2.2519 C.3     1  LIG1        0.0893
     33 C          -7.5682    0.6157    0.4305 C.3     1  LIG1        0.2332
     34 C          -0.0431   -1.9405   -3.0045 C.3     1  LIG1        0.1287
     35 C           3.2125   -4.7268    0.9558 C.3     1  LIG1       -0.0215
     36 C          -1.2950   -2.8325   -2.8930 C.2     1  LIG1        0.0789
     37 C           4.0977   -0.2059   -4.9927 C.3     1  LIG1        0.0788
     38 C           2.9022   -6.1847    0.6479 C.3     1  LIG1       -0.0622
     39 H          -0.9149    1.3985   -0.5827 H       1  LIG1        0.0379
     40 H           1.3230    0.8703    1.3942 H       1  LIG1        0.0405
     41 H          -1.7976    0.9351    2.2897 H       1  LIG1        0.0404
     42 H           2.0849   -1.9713    0.9963 H       1  LIG1        0.0657
     43 H          -2.7290   -2.0082    2.2710 H       1  LIG1        0.0622
     44 H          -4.0990    1.1205    2.4618 H       1  LIG1        0.0658
     45 H          -2.4237   -0.2566   -1.2905 H       1  LIG1        0.0622
     46 H          -1.3483   -4.0441    2.5972 H       1  LIG1        0.0654
     47 H           2.8753    1.9333    0.1785 H       1  LIG1        0.0623
     48 H          -4.6762   -0.3922   -2.2614 H       1  LIG1        0.0655
     49 H           1.9534   -0.8046   -3.8238 H       1  LIG1        0.0691
     50 H           4.4152    2.0009   -1.7331 H       1  LIG1        0.0654
     51 H           2.8417   -4.9391    3.0626 H       1  LIG1        0.0696
     52 H           2.9224   -3.2732    2.5594 H       1  LIG1        0.0696
     53 H          -8.2122    1.4837    0.2481 H       1  LIG1        0.1166
     54 H          -8.1976   -0.2170    0.7668 H       1  LIG1        0.1166
     55 H           0.8291   -2.5965   -3.1224 H       1  LIG1        0.0760
     56 H          -0.1708   -1.3222   -3.9022 H       1  LIG1        0.0760
     57 H           4.2980   -4.6032    1.0397 H       1  LIG1        0.0295
     58 H           2.8729   -4.1154    0.1128 H       1  LIG1        0.0295
     59 H           4.9573   -0.0593   -5.6533 H       1  LIG1        0.0660
     60 H           3.1952    0.0244   -5.5674 H       1  LIG1        0.0660
     61 H           4.1070   -1.2516   -4.6675 H       1  LIG1        0.0660
     62 H           3.2343   -6.8363    1.4631 H       1  LIG1        0.0231
     63 H           3.4189   -6.4962   -0.2649 H       1  LIG1        0.0231
     64 H           1.8289   -6.3403    0.4990 H       1  LIG1        0.0231
@<TRIPOS>BOND
     1     1    17   ar
     2     2    17   ar
     3     3    20    1
     4     3    32    1
     5     4    21    1
     6     4    34    1
     7     5    26    1
     8     5    33    1
     9     6    30    1
    10     6    33    1
    11     7    31    1
    12     7    37    1
    13     8    36   ar
    14     9    36   ar
    15    10    11    1
    16    10    12    1
    17    10    17    1
    18    11    13    1
    19    11    16    1
    20    12    14    1
    21    12    15    1
    22    13    14   ar
    23    13    18   ar
    24    14    19   ar
    25    15    22   ar
    26    15    23   ar
    27    16    21   ar
    28    16    25   ar
    29    18    20   ar
    30    19    24   ar
    31    20    24   ar
    32    21    28   ar
    33    22    26   ar
    34    23    27   ar
    35    25    29   ar
    36    26    30   ar
    37    27    30   ar
    38    28    31   ar
    39    29    31   ar
    40    32    35    1
    41    34    36    1
    42    35    38    1
    43    10    39    1
    44    11    40    1
    45    12    41    1
    46    18    42    1
    47    19    43    1
    48    22    44    1
    49    23    45    1
    50    24    46    1
    51    25    47    1
    52    27    48    1
    53    28    49    1
    54    29    50    1
    55    32    51    1
    56    32    52    1
    57    33    53    1
    58    33    54    1
    59    34    55    1
    60    34    56    1
    61    35    57    1
    62    35    58    1
    63    37    59    1
    64    37    60    1
    65    37    61    1
    66    38    62    1
    67    38    63    1
    68    38    64    1
@<TRIPOS>MOLECULE
108002
 64 68 0 0 0
SMALL
GASTEIGER

@<TRIPOS>ATOM
      1 O           0.6255    3.1930    1.2150 O.co2   1  LIG1       -0.5495
      2 O          -1.6241    3.2322    1.4400 O.co2   1  LIG1       -0.5495
      3 O           1.2753   -4.2365    2.3055 O.3     1  LIG1       -0.4920
      4 O           0.4882   -1.4398   -1.6815 O.3     1  LIG1       -0.4858
      5 O          -4.8857   -0.8343   -2.3275 O.3     1  LIG1       -0.4526
      6 O          -6.7095    0.3619   -1.2962 O.3     1  LIG1       -0.4526
      7 O           3.8361    0.8380   -4.1858 O.3     1  LIG1       -0.4950
      8 O           0.4371   -4.8959   -1.5413 O.co2   1  LIG1       -0.5463
      9 O          -1.2162   -3.6836   -2.5443 O.co2   1  LIG1       -0.5463
     10 C          -0.6216    1.2749    0.5045 C.3     1  LIG1        0.0203
     11 C           0.7134    0.4897    0.6027 C.3     1  LIG1        0.0218
     12 C          -1.6900    0.4699    1.2918 C.3     1  LIG1        0.0184
     13 C           0.3084   -0.8502    1.1613 C.ar    1  LIG1       -0.0320
     14 C          -1.0375   -0.8729    1.5156 C.ar    1  LIG1       -0.0353
     15 C          -3.0494    0.4169    0.6079 C.ar    1  LIG1       -0.0356
     16 C           1.5266    0.4948   -0.6923 C.ar    1  LIG1        0.0026
     17 C          -0.5297    2.6875    1.1112 C.2     1  LIG1        0.0466
     18 C           1.1373   -1.9444    1.4032 C.ar    1  LIG1       -0.0159
     19 C          -1.5925   -2.0119    2.0796 C.ar    1  LIG1       -0.0542
     20 C           0.6015   -3.0882    1.9929 C.ar    1  LIG1        0.1208
     21 C           1.4135   -0.4212   -1.7558 C.ar    1  LIG1        0.1283
     22 C          -3.2562   -0.2807   -0.5960 C.ar    1  LIG1       -0.0124
     23 C          -4.1298    1.1293    1.1870 C.ar    1  LIG1       -0.0543
     24 C          -0.7690   -3.1207    2.3019 C.ar    1  LIG1       -0.0196
     25 C           2.4675    1.5408   -0.8226 C.ar    1  LIG1       -0.0510
     26 C          -4.5151   -0.2405   -1.1610 C.ar    1  LIG1        0.1665
     27 C          -5.3972    1.1408    0.5997 C.ar    1  LIG1       -0.0159
     28 C           2.2103   -0.2460   -2.9042 C.ar    1  LIG1        0.0221
     29 C           3.2660    1.6898   -1.9585 C.ar    1  LIG1       -0.0194
     30 C          -5.5567    0.4459   -0.5772 C.ar    1  LIG1        0.1662
     31 C           3.1301    0.7994   -3.0128 C.ar    1  LIG1        0.1236
     32 C           2.6992   -4.2271    2.3283 C.3     1  LIG1        0.0893
     33 C          -6.2620   -0.4388   -2.4107 C.3     1  LIG1        0.2332
     34 C           0.9405   -2.6891   -2.2560 C.3     1  LIG1        0.1287
     35 C           3.2062   -5.4748    1.6130 C.3     1  LIG1       -0.0215
     36 C          -0.0626   -3.8415   -2.0457 C.2     1  LIG1        0.0789
     37 C           4.4781    2.0703   -4.4825 C.3     1  LIG1        0.0788
     38 C           4.7216   -5.5677    1.6605 C.3     1  LIG1       -0.0622
     39 H          -0.9151    1.4023   -0.5466 H       1  LIG1        0.0379
     40 H           1.3495    0.9136    1.3934 H       1  LIG1        0.0405
     41 H          -1.8195    0.8880    2.3007 H       1  LIG1        0.0404
     42 H           2.1675   -1.8687    1.0854 H       1  LIG1        0.0657
     43 H          -2.6449   -2.0468    2.3371 H       1  LIG1        0.0622
     44 H          -2.4495   -0.8319   -1.0785 H       1  LIG1        0.0658
     45 H          -3.9557    1.7110    2.0913 H       1  LIG1        0.0622
     46 H          -1.1970   -4.0272    2.7188 H       1  LIG1        0.0654
     47 H           2.5652    2.2728   -0.0195 H       1  LIG1        0.0623
     48 H          -6.2120    1.6980    1.0436 H       1  LIG1        0.0655
     49 H           2.1018   -0.9063   -3.7568 H       1  LIG1        0.0691
     50 H           3.9655    2.5165   -1.9797 H       1  LIG1        0.0654
     51 H           3.0048   -4.2539    3.3813 H       1  LIG1        0.0696
     52 H           3.1671   -3.3471    1.8845 H       1  LIG1        0.0696
     53 H          -6.8856   -1.3390   -2.4636 H       1  LIG1        0.1166
     54 H          -6.4082    0.1379   -3.3314 H       1  LIG1        0.1166
     55 H           1.9096   -2.9632   -1.8205 H       1  LIG1        0.0760
     56 H           1.0362   -2.5991   -3.3434 H       1  LIG1        0.0760
     57 H           2.8685   -5.4611    0.5710 H       1  LIG1        0.0295
     58 H           2.7635   -6.3689    2.0662 H       1  LIG1        0.0295
     59 H           4.8663    2.0064   -5.5037 H       1  LIG1        0.0660
     60 H           5.3292    2.2409   -3.8153 H       1  LIG1        0.0660
     61 H           3.7731    2.9082   -4.4475 H       1  LIG1        0.0660
     62 H           5.1848   -4.6983    1.1812 H       1  LIG1        0.0231
     63 H           5.0658   -6.4663    1.1371 H       1  LIG1        0.0231
     64 H           5.0799   -5.6192    2.6945 H       1  LIG1        0.0231
@<TRIPOS>BOND
     1     1    17   ar
     2     2    17   ar
     3     3    20    1
     4     3    32    1
     5     4    21    1
     6     4    34    1
     7     5    26    1
     8     5    33    1
     9     6    30    1
    10     6    33    1
    11     7    31    1
    12     7    37    1
    13     8    36   ar
    14     9    36   ar
    15    10    11    1
    16    10    12    1
    17    10    17    1
    18    11    13    1
    19    11    16    1
    20    12    14    1
    21    12    15    1
    22    13    14   ar
    23    13    18   ar
    24    14    19   ar
    25    15    22   ar
    26    15    23   ar
    27    16    21   ar
    28    16    25   ar
    29    18    20   ar
    30    19    24   ar
    31    20    24   ar
    32    21    28   ar
    33    22    26   ar
    34    23    27   ar
    35    25    29   ar
    36    26    30   ar
    37    27    30   ar
    38    28    31   ar
    39    29    31   ar
    40    32    35    1
    41    34    36    1
    42    35    38    1
    43    10    39    1
    44    11    40    1
    45    12    41    1
    46    18    42    1
    47    19    43    1
    48    22    44    1
    49    23    45    1
    50    24    46    1
    51    25    47    1
    52    27    48    1
    53    28    49    1
    54    29    50    1
    55    32    51    1
    56    32    52    1
    57    33    53    1
    58    33    54    1
    59    34    55    1
    60    34    56    1
    61    35    57    1
    62    35    58    1
    63    37    59    1
    64    37    60    1
    65    37    61    1
    66    38    62    1
    67    38    63    1
    68    38    64    1
@<TRIPOS>MOLECULE
108002
 64 68 0 0 0
SMALL
GASTEIGER

@<TRIPOS>ATOM
      1 O           0.7726    3.1348    1.4518 O.co2   1  LIG1       -0.5495
      2 O          -1.4269    3.1987    1.9870 O.co2   1  LIG1       -0.5495
      3 O           1.1528   -4.2979    1.9935 O.3     1  LIG1       -0.4920
      4 O          -0.2483   -0.3141   -2.0388 O.3     1  LIG1       -0.4858
      5 O          -5.1427   -1.2718   -1.8251 O.3     1  LIG1       -0.4526
      6 O          -6.7787    0.3810   -1.1851 O.3     1  LIG1       -0.4526
      7 O           4.0352    0.4941   -3.9915 O.3     1  LIG1       -0.4950
      8 O          -0.2851   -1.1726   -5.3942 O.co2   1  LIG1       -0.5463
      9 O          -1.9558    0.0437   -4.4341 O.co2   1  LIG1       -0.5463
     10 C          -0.6449    1.3766    0.6477 C.3     1  LIG1        0.0203
     11 C           0.6570    0.5365    0.6175 C.3     1  LIG1        0.0218
     12 C          -1.7312    0.5243    1.3608 C.3     1  LIG1        0.0184
     13 C           0.2272   -0.8429    1.0627 C.ar    1  LIG1       -0.0320
     14 C          -1.0909   -0.8407    1.5075 C.ar    1  LIG1       -0.0353
     15 C          -3.0817    0.5128    0.6512 C.ar    1  LIG1       -0.0356
     16 C           1.4813    0.5741   -0.6656 C.ar    1  LIG1        0.0026
     17 C          -0.4110    2.6856    1.4280 C.2     1  LIG1        0.0466
     18 C           1.0209   -1.9814    1.1843 C.ar    1  LIG1       -0.0159
     19 C          -1.6522   -1.9843    2.0639 C.ar    1  LIG1       -0.0542
     20 C           0.4736   -3.1282    1.7657 C.ar    1  LIG1        0.1208
     21 C           1.0541    0.0964   -1.9209 C.ar    1  LIG1        0.1283
     22 C          -3.3976   -0.4244   -0.3483 C.ar    1  LIG1       -0.0124
     23 C          -4.0535    1.4770    1.0141 C.ar    1  LIG1       -0.0543
     24 C          -0.8671   -3.1333    2.1769 C.ar    1  LIG1       -0.0196
     25 C           2.7907    1.0893   -0.5581 C.ar    1  LIG1       -0.0510
     26 C          -4.6620   -0.4004   -0.8970 C.ar    1  LIG1        0.1665
     27 C          -5.3240    1.4914    0.4275 C.ar    1  LIG1       -0.0159
     28 C           1.9496    0.1084   -3.0022 C.ar    1  LIG1        0.0221
     29 C           3.6732    1.0858   -1.6390 C.ar    1  LIG1       -0.0194
     30 C          -5.5990    0.5333   -0.5213 C.ar    1  LIG1        0.1662
     31 C           3.2624    0.5732   -2.8628 C.ar    1  LIG1        0.1236
     32 C           2.5680   -4.1598    2.1339 C.3     1  LIG1        0.0893
     33 C          -6.4275   -0.6878   -2.0909 C.3     1  LIG1        0.2332
     34 C          -0.5445   -1.3139   -3.0386 C.3     1  LIG1        0.1287
     35 C           3.0899   -5.4234    2.8130 C.3     1  LIG1       -0.0215
     36 C          -0.9561   -0.7283   -4.4082 C.2     1  LIG1        0.0789
     37 C           5.4223    0.7440   -3.8284 C.3     1  LIG1        0.0788
     38 C           4.5854   -5.3558    3.0655 C.3     1  LIG1       -0.0622
     39 H          -0.9617    1.6645   -0.3627 H       1  LIG1        0.0379
     40 H           1.3118    0.8551    1.4415 H       1  LIG1        0.0405
     41 H          -1.8948    0.8639    2.3932 H       1  LIG1        0.0404
     42 H           2.0458   -1.9417    0.8355 H       1  LIG1        0.0657
     43 H          -2.6814   -1.9796    2.4077 H       1  LIG1        0.0622
     44 H          -2.6712   -1.1525   -0.6927 H       1  LIG1        0.0658
     45 H          -3.7976    2.2350    1.7547 H       1  LIG1        0.0622
     46 H          -1.2926   -4.0321    2.6118 H       1  LIG1        0.0654
     47 H           3.1186    1.5177    0.3879 H       1  LIG1        0.0623
     48 H          -6.0554    2.2385    0.7055 H       1  LIG1        0.0655
     49 H           1.6382   -0.2328   -3.9860 H       1  LIG1        0.0691
     50 H           4.6598    1.5056   -1.4890 H       1  LIG1        0.0654
     51 H           2.8171   -3.2916    2.7575 H       1  LIG1        0.0696
     52 H           3.0276   -4.0522    1.1446 H       1  LIG1        0.0696
     53 H          -7.1883   -1.4720   -2.0048 H       1  LIG1        0.1166
     54 H          -6.4413   -0.3016   -3.1172 H       1  LIG1        0.1166
     55 H          -1.4077   -1.8783   -2.6670 H       1  LIG1        0.0760
     56 H           0.2749   -2.0378   -3.1292 H       1  LIG1        0.0760
     57 H           2.8537   -6.2980    2.1952 H       1  LIG1        0.0295
     58 H           2.5616   -5.5737    3.7625 H       1  LIG1        0.0295
     59 H           5.9157    0.5288   -4.7814 H       1  LIG1        0.0660
     60 H           5.8621    0.0833   -3.0732 H       1  LIG1        0.0660
     61 H           5.6079    1.7961   -3.5891 H       1  LIG1        0.0660
     62 H           5.1376   -5.2468    2.1269 H       1  LIG1        0.0231
     63 H           4.9283   -6.2708    3.5586 H       1  LIG1        0.0231
     64 H           4.8355   -4.5089    3.7125 H       1  LIG1        0.0231
@<TRIPOS>BOND
     1     1    17   ar
     2     2    17   ar
     3     3    20    1
     4     3    32    1
     5     4    21    1
     6     4    34    1
     7     5    26    1
     8     5    33    1
     9     6    30    1
    10     6    33    1
    11     7    31    1
    12     7    37    1
    13     8    36   ar
    14     9    36   ar
    15    10    11    1
    16    10    12    1
    17    10    17    1
    18    11    13    1
    19    11    16    1
    20    12    14    1
    21    12    15    1
    22    13    14   ar
    23    13    18   ar
    24    14    19   ar
    25    15    22   ar
    26    15    23   ar
    27    16    21   ar
    28    16    25   ar
    29    18    20   ar
    30    19    24   ar
    31    20    24   ar
    32    21    28   ar
    33    22    26   ar
    34    23    27   ar
    35    25    29   ar
    36    26    30   ar
    37    27    30   ar
    38    28    31   ar
    39    29    31   ar
    40    32    35    1
    41    34    36    1
    42    35    38    1
    43    10    39    1
    44    11    40    1
    45    12    41    1
    46    18    42    1
    47    19    43    1
    48    22    44    1
    49    23    45    1
    50    24    46    1
    51    25    47    1
    52    27    48    1
    53    28    49    1
    54    29    50    1
    55    32    51    1
    56    32    52    1
    57    33    53    1
    58    33    54    1
    59    34    55    1
    60    34    56    1
    61    35    57    1
    62    35    58    1
    63    37    59    1
    64    37    60    1
    65    37    61    1
    66    38    62    1
    67    38    63    1
    68    38    64    1
@<TRIPOS>MOLECULE
108002
 64 68 0 0 0
SMALL
GASTEIGER

@<TRIPOS>ATOM
      1 O          -0.0258    3.4936   -0.0314 O.co2   1  LIG1       -0.5495
      2 O          -1.2678    3.1495    1.8405 O.co2   1  LIG1       -0.5495
      3 O           1.1919   -4.2116    1.9974 O.3     1  LIG1       -0.4920
      4 O           3.5207    0.7344    0.7974 O.3     1  LIG1       -0.4858
      5 O          -5.0203   -0.7490   -2.2591 O.3     1  LIG1       -0.4526
      6 O          -6.8124    0.4914   -1.2209 O.3     1  LIG1       -0.4526
      7 O           4.0738    0.3215   -3.9397 O.3     1  LIG1       -0.4950
      8 O           6.0194    1.8129    2.7862 O.co2   1  LIG1       -0.5463
      9 O           5.4091   -0.3830    2.8653 O.co2   1  LIG1       -0.5463
     10 C          -0.7013    1.2877    0.4581 C.3     1  LIG1        0.0203
     11 C           0.6690    0.5620    0.6676 C.3     1  LIG1        0.0218
     12 C          -1.7570    0.5385    1.3002 C.3     1  LIG1        0.0184
     13 C           0.2168   -0.8177    1.1281 C.ar    1  LIG1       -0.0320
     14 C          -1.1373   -0.8270    1.4672 C.ar    1  LIG1       -0.0353
     15 C          -3.1317    0.5163    0.6387 C.ar    1  LIG1       -0.0356
     16 C           1.5780    0.4875   -0.5652 C.ar    1  LIG1        0.0026
     17 C          -0.6326    2.7734    0.8137 C.2     1  LIG1        0.0466
     18 C           0.9874   -1.9649    1.3088 C.ar    1  LIG1       -0.0159
     19 C          -1.7395   -1.9604    1.9985 C.ar    1  LIG1       -0.0542
     20 C           0.3788   -3.1278    1.7933 C.ar    1  LIG1        0.1208
     21 C           2.9814    0.6136   -0.4658 C.ar    1  LIG1        0.1283
     22 C          -3.3666   -0.1874   -0.5572 C.ar    1  LIG1       -0.0124
     23 C          -4.1880    1.2514    1.2259 C.ar    1  LIG1       -0.0543
     24 C          -0.9740   -3.1147    2.1621 C.ar    1  LIG1       -0.0196
     25 C           1.0252    0.2356   -1.8381 C.ar    1  LIG1       -0.0510
     26 C          -4.6295   -0.1380   -1.1069 C.ar    1  LIG1        0.1665
     27 C          -5.4628    1.2741    0.6524 C.ar    1  LIG1       -0.0159
     28 C           3.7589    0.5704   -1.6385 C.ar    1  LIG1        0.0221
     29 C           1.8136    0.1785   -2.9898 C.ar    1  LIG1       -0.0194
     30 C          -5.6501    0.5700   -0.5162 C.ar    1  LIG1        0.1662
     31 C           3.1865    0.3549   -2.8956 C.ar    1  LIG1        0.1236
     32 C           0.6643   -5.4650    1.5603 C.3     1  LIG1        0.0893
     33 C          -6.3833   -0.2935   -2.3511 C.3     1  LIG1        0.2332
     34 C           4.9557    0.8583    0.8814 C.3     1  LIG1        0.1287
     35 C           1.3459   -6.5619    2.3746 C.3     1  LIG1       -0.0215
     36 C           5.4640    0.7647    2.3316 C.2     1  LIG1        0.0789
     37 C           3.5276    0.0817   -5.2278 C.3     1  LIG1        0.0788
     38 C           0.7730   -7.9362    2.0748 C.3     1  LIG1       -0.0622
     39 H          -1.0078    1.2714   -0.5932 H       1  LIG1        0.0379
     40 H           1.1980    1.0454    1.4989 H       1  LIG1        0.0405
     41 H          -1.8453    0.9420    2.3169 H       1  LIG1        0.0404
     42 H           2.0544   -1.9472    1.0978 H       1  LIG1        0.0657
     43 H          -2.7784   -1.9372    2.3099 H       1  LIG1        0.0622
     44 H          -2.5720   -0.7429   -1.0443 H       1  LIG1        0.0658
     45 H          -3.9919    1.8337    2.1272 H       1  LIG1        0.0622
     46 H          -1.4358   -3.9753    2.6303 H       1  LIG1        0.0654
     47 H          -0.0438    0.0786   -1.9493 H       1  LIG1        0.0623
     48 H          -6.2644    1.8461    1.1032 H       1  LIG1        0.0655
     49 H           4.8350    0.6979   -1.6007 H       1  LIG1        0.0691
     50 H           1.3145    0.0030   -3.9342 H       1  LIG1        0.0654
     51 H           0.8936   -5.5876    0.4952 H       1  LIG1        0.0696
     52 H          -0.4192   -5.5514    1.6850 H       1  LIG1        0.0696
     53 H          -7.0371   -1.1678   -2.4372 H       1  LIG1        0.1166
     54 H          -6.4900    0.3125   -3.2589 H       1  LIG1        0.1166
     55 H           5.2592    1.8226    0.4493 H       1  LIG1        0.0760
     56 H           5.4454    0.0391    0.3421 H       1  LIG1        0.0760
     57 H           1.2370   -6.3450    3.4443 H       1  LIG1        0.0295
     58 H           2.4231   -6.5540    2.1723 H       1  LIG1        0.0295
     59 H           4.3539    0.0734   -5.9454 H       1  LIG1        0.0660
     60 H           2.8399    0.8809   -5.5232 H       1  LIG1        0.0660
     61 H           3.0402   -0.8984   -5.2756 H       1  LIG1        0.0660
     62 H          -0.2937   -7.9773    2.3227 H       1  LIG1        0.0231
     63 H           1.2852   -8.6982    2.6710 H       1  LIG1        0.0231
     64 H           0.8911   -8.1917    1.0182 H       1  LIG1        0.0231
@<TRIPOS>BOND
     1     1    17   ar
     2     2    17   ar
     3     3    20    1
     4     3    32    1
     5     4    21    1
     6     4    34    1
     7     5    26    1
     8     5    33    1
     9     6    30    1
    10     6    33    1
    11     7    31    1
    12     7    37    1
    13     8    36   ar
    14     9    36   ar
    15    10    11    1
    16    10    12    1
    17    10    17    1
    18    11    13    1
    19    11    16    1
    20    12    14    1
    21    12    15    1
    22    13    14   ar
    23    13    18   ar
    24    14    19   ar
    25    15    22   ar
    26    15    23   ar
    27    16    21   ar
    28    16    25   ar
    29    18    20   ar
    30    19    24   ar
    31    20    24   ar
    32    21    28   ar
    33    22    26   ar
    34    23    27   ar
    35    25    29   ar
    36    26    30   ar
    37    27    30   ar
    38    28    31   ar
    39    29    31   ar
    40    32    35    1
    41    34    36    1
    42    35    38    1
    43    10    39    1
    44    11    40    1
    45    12    41    1
    46    18    42    1
    47    19    43    1
    48    22    44    1
    49    23    45    1
    50    24    46    1
    51    25    47    1
    52    27    48    1
    53    28    49    1
    54    29    50    1
    55    32    51    1
    56    32    52    1
    57    33    53    1
    58    33    54    1
    59    34    55    1
    60    34    56    1
    61    35    57    1
    62    35    58    1
    63    37    59    1
    64    37    60    1
    65    37    61    1
    66    38    62    1
    67    38    63    1
    68    38    64    1
@<TRIPOS>MOLECULE
108002
 64 68 0 0 0
SMALL
GASTEIGER

@<TRIPOS>ATOM
      1 O           0.0953    3.5018    0.0647 O.co2   1  LIG1       -0.5495
      2 O          -1.2614    3.1535    1.8539 O.co2   1  LIG1       -0.5495
      3 O           1.2301   -4.1972    1.9874 O.3     1  LIG1       -0.4920
      4 O           3.5621    0.5638    0.7550 O.3     1  LIG1       -0.4858
      5 O          -4.9938   -0.7250   -2.2699 O.3     1  LIG1       -0.4526
      6 O          -6.7875    0.5012   -1.2169 O.3     1  LIG1       -0.4526
      7 O           4.0633    0.2783   -3.9940 O.3     1  LIG1       -0.4950
      8 O           6.3955    1.0211    2.6452 O.co2   1  LIG1       -0.5463
      9 O           5.0704   -0.8221    2.8792 O.co2   1  LIG1       -0.5463
     10 C          -0.6657    1.3049    0.4650 C.3     1  LIG1        0.0203
     11 C           0.7019    0.5632    0.6468 C.3     1  LIG1        0.0218
     12 C          -1.7252    0.5431    1.2919 C.3     1  LIG1        0.0184
     13 C           0.2457   -0.8139    1.1084 C.ar    1  LIG1       -0.0320
     14 C          -1.1089   -0.8240    1.4447 C.ar    1  LIG1       -0.0353
     15 C          -3.0994    0.5297    0.6293 C.ar    1  LIG1       -0.0356
     16 C           1.5954    0.4797   -0.5978 C.ar    1  LIG1        0.0026
     17 C          -0.5783    2.7816    0.8572 C.2     1  LIG1        0.0466
     18 C           1.0165   -1.9585    1.2946 C.ar    1  LIG1       -0.0159
     19 C          -1.7129   -1.9620    1.9656 C.ar    1  LIG1       -0.0542
     20 C           0.4085   -3.1239    1.7734 C.ar    1  LIG1        0.1208
     21 C           3.0050    0.5157   -0.5063 C.ar    1  LIG1        0.1283
     22 C          -3.3347   -0.1662   -0.5719 C.ar    1  LIG1       -0.0124
     23 C          -4.1561    1.2579    1.2238 C.ar    1  LIG1       -0.0543
     24 C          -0.9479   -3.1166    2.1280 C.ar    1  LIG1       -0.0196
     25 C           1.0246    0.2971   -1.8748 C.ar    1  LIG1       -0.0510
     26 C          -4.6013   -0.1180   -1.1165 C.ar    1  LIG1        0.1665
     27 C          -5.4337    1.2802    0.6547 C.ar    1  LIG1       -0.0159
     28 C           3.7737    0.4699   -1.6848 C.ar    1  LIG1        0.0221
     29 C           1.8036    0.2297   -3.0330 C.ar    1  LIG1       -0.0194
     30 C          -5.6214    0.5817   -0.5175 C.ar    1  LIG1        0.1662
     31 C           3.1848    0.3264   -2.9435 C.ar    1  LIG1        0.1236
     32 C           0.7192   -5.4614    1.5705 C.3     1  LIG1        0.0893
     33 C          -6.3606   -0.2808   -2.3499 C.3     1  LIG1        0.2332
     34 C           4.9954    0.4050    0.8265 C.3     1  LIG1        0.1287
     35 C           1.4556   -6.5581    2.3389 C.3     1  LIG1       -0.0215
     36 C           5.4954    0.2050    2.2713 C.2     1  LIG1        0.0789
     37 C           3.5012    0.0712   -5.2809 C.3     1  LIG1        0.0788
     38 C           1.2354   -6.4499    3.8427 C.3     1  LIG1       -0.0622
     39 H          -0.9803    1.3233   -0.5836 H       1  LIG1        0.0379
     40 H           1.2505    1.0391    1.4698 H       1  LIG1        0.0405
     41 H          -1.8159    0.9345    2.3136 H       1  LIG1        0.0404
     42 H           2.0865   -1.9388    1.0979 H       1  LIG1        0.0657
     43 H          -2.7530   -1.9409    2.2732 H       1  LIG1        0.0622
     44 H          -2.5409   -0.7171   -1.0634 H       1  LIG1        0.0658
     45 H          -3.9597    1.8334    2.1291 H       1  LIG1        0.0622
     46 H          -1.4115   -3.9802    2.5894 H       1  LIG1        0.0654
     47 H          -0.0510    0.2010   -1.9865 H       1  LIG1        0.0623
     48 H          -6.2355    1.8453    1.1121 H       1  LIG1        0.0655
     49 H           4.8554    0.5393   -1.6483 H       1  LIG1        0.0691
     50 H           1.2906    0.1103   -3.9787 H       1  LIG1        0.0654
     51 H           0.9100   -5.5761    0.4971 H       1  LIG1        0.0696
     52 H          -0.3556   -5.5808    1.7369 H       1  LIG1        0.0696
     53 H          -7.0089   -1.1608   -2.4297 H       1  LIG1        0.1166
     54 H          -6.4814    0.3231   -3.2574 H       1  LIG1        0.1166
     55 H           5.4761    1.2961    0.4031 H       1  LIG1        0.0760
     56 H           5.3090   -0.4902    0.2750 H       1  LIG1        0.0760
     57 H           2.5314   -6.4888    2.1394 H       1  LIG1        0.0295
     58 H           1.1137   -7.5395    1.9905 H       1  LIG1        0.0295
     59 H           4.3231    0.0348   -6.0028 H       1  LIG1        0.0660
     60 H           2.8459    0.9010   -5.5665 H       1  LIG1        0.0660
     61 H           2.9734   -0.8870   -5.3335 H       1  LIG1        0.0660
     62 H           1.6400   -5.5125    4.2368 H       1  LIG1        0.0231
     63 H           1.7364   -7.2741    4.3587 H       1  LIG1        0.0231
     64 H           0.1692   -6.4923    4.0867 H       1  LIG1        0.0231
@<TRIPOS>BOND
     1     1    17   ar
     2     2    17   ar
     3     3    20    1
     4     3    32    1
     5     4    21    1
     6     4    34    1
     7     5    26    1
     8     5    33    1
     9     6    30    1
    10     6    33    1
    11     7    31    1
    12     7    37    1
    13     8    36   ar
    14     9    36   ar
    15    10    11    1
    16    10    12    1
    17    10    17    1
    18    11    13    1
    19    11    16    1
    20    12    14    1
    21    12    15    1
    22    13    14   ar
    23    13    18   ar
    24    14    19   ar
    25    15    22   ar
    26    15    23   ar
    27    16    21   ar
    28    16    25   ar
    29    18    20   ar
    30    19    24   ar
    31    20    24   ar
    32    21    28   ar
    33    22    26   ar
    34    23    27   ar
    35    25    29   ar
    36    26    30   ar
    37    27    30   ar
    38    28    31   ar
    39    29    31   ar
    40    32    35    1
    41    34    36    1
    42    35    38    1
    43    10    39    1
    44    11    40    1
    45    12    41    1
    46    18    42    1
    47    19    43    1
    48    22    44    1
    49    23    45    1
    50    24    46    1
    51    25    47    1
    52    27    48    1
    53    28    49    1
    54    29    50    1
    55    32    51    1
    56    32    52    1
    57    33    53    1
    58    33    54    1
    59    34    55    1
    60    34    56    1
    61    35    57    1
    62    35    58    1
    63    37    59    1
    64    37    60    1
    65    37    61    1
    66    38    62    1
    67    38    63    1
    68    38    64    1
@<TRIPOS>MOLECULE
108002
 64 68 0 0 0
SMALL
GASTEIGER

@<TRIPOS>ATOM
      1 O           0.0923    3.4998    0.0508 O.co2   1  LIG1       -0.5495
      2 O          -1.2543    3.1579    1.8484 O.co2   1  LIG1       -0.5495
      3 O           1.2333   -4.2004    1.9659 O.3     1  LIG1       -0.4920
      4 O           3.5586    0.5264    0.7477 O.3     1  LIG1       -0.4858
      5 O          -5.0028   -0.7220   -2.2626 O.3     1  LIG1       -0.4526
      6 O          -6.7927    0.5060   -1.2057 O.3     1  LIG1       -0.4526
      7 O           4.0303    0.5222   -4.0272 O.3     1  LIG1       -0.4950
      8 O           6.3912    0.9952    2.6401 O.co2   1  LIG1       -0.5463
      9 O           5.0891   -0.8660    2.8461 O.co2   1  LIG1       -0.5463
     10 C          -0.6702    1.3046    0.4612 C.3     1  LIG1        0.0203
     11 C           0.6985    0.5618    0.6343 C.3     1  LIG1        0.0218
     12 C          -1.7247    0.5418    1.2921 C.3     1  LIG1        0.0184
     13 C           0.2442   -0.8176    1.0882 C.ar    1  LIG1       -0.0320
     14 C          -1.1070   -0.8264    1.4374 C.ar    1  LIG1       -0.0353
     15 C          -3.1013    0.5285    0.6335 C.ar    1  LIG1       -0.0356
     16 C           1.5929    0.4999   -0.6109 C.ar    1  LIG1        0.0026
     17 C          -0.5777    2.7818    0.8484 C.2     1  LIG1        0.0466
     18 C           1.0158   -1.9632    1.2680 C.ar    1  LIG1       -0.0159
     19 C          -1.7080   -1.9636    1.9642 C.ar    1  LIG1       -0.0542
     20 C           0.4104   -3.1273    1.7548 C.ar    1  LIG1        0.1208
     21 C           3.0037    0.5297   -0.5158 C.ar    1  LIG1        0.1283
     22 C          -3.3405   -0.1662   -0.5673 C.ar    1  LIG1       -0.0124
     23 C          -4.1560    1.2577    1.2309 C.ar    1  LIG1       -0.0543
     24 C          -0.9423   -3.1184    2.1214 C.ar    1  LIG1       -0.0196
     25 C           1.0220    0.3633   -1.8941 C.ar    1  LIG1       -0.0510
     26 C          -4.6067   -0.1166   -1.1096 C.ar    1  LIG1        0.1665
     27 C          -5.4341    1.2816    0.6639 C.ar    1  LIG1       -0.0159
     28 C           3.7742    0.5395   -1.6931 C.ar    1  LIG1        0.0221
     29 C           1.8005    0.3665   -3.0528 C.ar    1  LIG1       -0.0194
     30 C          -5.6261    0.5845   -0.5081 C.ar    1  LIG1        0.1662
     31 C           3.1782    0.4920   -2.9535 C.ar    1  LIG1        0.1236
     32 C           0.7188   -5.4661    1.5586 C.3     1  LIG1        0.0893
     33 C          -6.3695   -0.2767   -2.3396 C.3     1  LIG1        0.2332
     34 C           4.9951    0.3923    0.8138 C.3     1  LIG1        0.1287
     35 C           1.4532   -6.5595    2.3331 C.3     1  LIG1       -0.0215
     36 C           5.5010    0.1741    2.2539 C.2     1  LIG1        0.0789
     37 C           3.5135    1.2188   -5.1559 C.3     1  LIG1        0.0788
     38 C           1.2318   -6.4444    3.8360 C.3     1  LIG1       -0.0622
     39 H          -0.9922    1.3216   -0.5847 H       1  LIG1        0.0379
     40 H           1.2464    1.0329    1.4607 H       1  LIG1        0.0405
     41 H          -1.8104    0.9322    2.3142 H       1  LIG1        0.0404
     42 H           2.0841   -1.9447    1.0642 H       1  LIG1        0.0657
     43 H          -2.7453   -1.9411    2.2812 H       1  LIG1        0.0622
     44 H          -2.5476   -0.7179   -1.0613 H       1  LIG1        0.0658
     45 H          -3.9569    1.8322    2.1362 H       1  LIG1        0.0622
     46 H          -1.4024   -3.9805    2.5891 H       1  LIG1        0.0654
     47 H          -0.0517    0.2560   -2.0106 H       1  LIG1        0.0623
     48 H          -6.2345    1.8474    1.1235 H       1  LIG1        0.0655
     49 H           4.8556    0.6032   -1.6562 H       1  LIG1        0.0691
     50 H           1.3027    0.2682   -4.0096 H       1  LIG1        0.0654
     51 H           0.9084   -5.5884    0.4858 H       1  LIG1        0.0696
     52 H          -0.3564   -5.5816    1.7256 H       1  LIG1        0.0696
     53 H          -7.0185   -1.1563   -2.4177 H       1  LIG1        0.1166
     54 H          -6.4917    0.3272   -3.2468 H       1  LIG1        0.1166
     55 H           5.4595    1.2995    0.4089 H       1  LIG1        0.0760
     56 H           5.3208   -0.4866    0.2428 H       1  LIG1        0.0760
     57 H           2.5290   -6.4923    2.1347 H       1  LIG1        0.0295
     58 H           1.1110   -7.5419    1.9893 H       1  LIG1        0.0295
     59 H           4.3519    1.4388   -5.8239 H       1  LIG1        0.0660
     60 H           3.0544    2.1729   -4.8730 H       1  LIG1        0.0660
     61 H           2.8060    0.5923   -5.7081 H       1  LIG1        0.0660
     62 H           1.6366   -5.5055    4.2274 H       1  LIG1        0.0231
     63 H           1.7323   -7.2668    4.3566 H       1  LIG1        0.0231
     64 H           0.1654   -6.4858    4.0801 H       1  LIG1        0.0231
@<TRIPOS>BOND
     1     1    17   ar
     2     2    17   ar
     3     3    20    1
     4     3    32    1
     5     4    21    1
     6     4    34    1
     7     5    26    1
     8     5    33    1
     9     6    30    1
    10     6    33    1
    11     7    31    1
    12     7    37    1
    13     8    36   ar
    14     9    36   ar
    15    10    11    1
    16    10    12    1
    17    10    17    1
    18    11    13    1
    19    11    16    1
    20    12    14    1
    21    12    15    1
    22    13    14   ar
    23    13    18   ar
    24    14    19   ar
    25    15    22   ar
    26    15    23   ar
    27    16    21   ar
    28    16    25   ar
    29    18    20   ar
    30    19    24   ar
    31    20    24   ar
    32    21    28   ar
    33    22    26   ar
    34    23    27   ar
    35    25    29   ar
    36    26    30   ar
    37    27    30   ar
    38    28    31   ar
    39    29    31   ar
    40    32    35    1
    41    34    36    1
    42    35    38    1
    43    10    39    1
    44    11    40    1
    45    12    41    1
    46    18    42    1
    47    19    43    1
    48    22    44    1
    49    23    45    1
    50    24    46    1
    51    25    47    1
    52    27    48    1
    53    28    49    1
    54    29    50    1
    55    32    51    1
    56    32    52    1
    57    33    53    1
    58    33    54    1
    59    34    55    1
    60    34    56    1
    61    35    57    1
    62    35    58    1
    63    37    59    1
    64    37    60    1
    65    37    61    1
    66    38    62    1
    67    38    63    1
    68    38    64    1
@<TRIPOS>MOLECULE
108002
 64 68 0 0 0
SMALL
GASTEIGER

@<TRIPOS>ATOM
      1 O           0.6168    3.1678    1.2421 O.co2   1  LIG1       -0.5495
      2 O          -1.6369    3.3076    1.4238 O.co2   1  LIG1       -0.5495
      3 O           1.0869   -4.2765    2.1048 O.3     1  LIG1       -0.4920
      4 O           0.0069   -0.8826   -1.9879 O.3     1  LIG1       -0.4858
      5 O          -6.5734    1.7877    1.1093 O.3     1  LIG1       -0.4526
      6 O          -6.9806    0.4327   -0.8470 O.3     1  LIG1       -0.4526
      7 O           4.1180    0.8626   -3.9469 O.3     1  LIG1       -0.4950
      8 O           0.2195   -2.9421   -3.8388 O.co2   1  LIG1       -0.5463
      9 O          -0.7483   -1.6585   -5.4480 O.co2   1  LIG1       -0.5463
     10 C          -0.7104    1.3191    0.4918 C.3     1  LIG1        0.0203
     11 C           0.6102    0.5112    0.5589 C.3     1  LIG1        0.0218
     12 C          -1.7671    0.5409    1.3240 C.3     1  LIG1        0.0184
     13 C           0.1787   -0.8472    1.0579 C.ar    1  LIG1       -0.0320
     14 C          -1.1403   -0.8252    1.5050 C.ar    1  LIG1       -0.0353
     15 C          -3.1514    0.4915    0.6878 C.ar    1  LIG1       -0.0356
     16 C           1.4580    0.5364   -0.7084 C.ar    1  LIG1        0.0026
     17 C          -0.5585    2.7212    1.1062 C.2     1  LIG1        0.0466
     18 C           0.9684   -1.9828    1.2148 C.ar    1  LIG1       -0.0159
     19 C          -1.7071   -1.9497    2.0908 C.ar    1  LIG1       -0.0542
     20 C           0.4191   -3.1108    1.8285 C.ar    1  LIG1        0.1208
     21 C           1.1521   -0.1275   -1.9121 C.ar    1  LIG1        0.1283
     22 C          -4.2005    1.2375    1.2525 C.ar    1  LIG1       -0.0124
     23 C          -3.4077   -0.2934   -0.4613 C.ar    1  LIG1       -0.0543
     24 C          -0.9236   -3.0967    2.2374 C.ar    1  LIG1       -0.0196
     25 C           2.6365    1.3110   -0.6672 C.ar    1  LIG1       -0.0510
     26 C          -5.4499    1.1524    0.6752 C.ar    1  LIG1        0.1665
     27 C          -4.6813   -0.3530   -1.0348 C.ar    1  LIG1       -0.0159
     28 C           2.0466   -0.0630   -2.9958 C.ar    1  LIG1        0.0221
     29 C           3.4990    1.3948   -1.7616 C.ar    1  LIG1       -0.0194
     30 C          -5.6833    0.3781   -0.4383 C.ar    1  LIG1        0.1662
     31 C           3.2050    0.7117   -2.9353 C.ar    1  LIG1        0.1236
     32 C           2.5118   -4.2083    2.1881 C.3     1  LIG1        0.0893
     33 C          -7.5221    1.3543    0.1182 C.3     1  LIG1        0.2332
     34 C          -0.7063   -0.7885   -3.2462 C.3     1  LIG1        0.1287
     35 C           2.9543   -3.5542    3.4982 C.3     1  LIG1       -0.0215
     36 C          -0.3781   -1.9116   -4.2559 C.2     1  LIG1        0.0789
     37 C           3.6639    0.4739   -5.2404 C.3     1  LIG1        0.0788
     38 C           4.4656   -3.5117    3.6309 C.3     1  LIG1       -0.0622
     39 H          -1.0376    1.4525   -0.5480 H       1  LIG1        0.0379
     40 H           1.2334    0.8856    1.3843 H       1  LIG1        0.0405
     41 H          -1.8546    0.9577    2.3377 H       1  LIG1        0.0404
     42 H           1.9888   -1.9490    0.8552 H       1  LIG1        0.0657
     43 H          -2.7363   -1.9350    2.4322 H       1  LIG1        0.0622
     44 H          -4.0242    1.8810    2.1089 H       1  LIG1        0.0658
     45 H          -2.5965   -0.8682   -0.9055 H       1  LIG1        0.0622
     46 H          -1.3525   -3.9826    2.6951 H       1  LIG1        0.0654
     47 H           2.8718    1.8802    0.2323 H       1  LIG1        0.0623
     48 H          -4.8626   -0.9538   -1.9177 H       1  LIG1        0.0655
     49 H           1.8330   -0.6516   -3.8796 H       1  LIG1        0.0691
     50 H           4.3922    2.0068   -1.6948 H       1  LIG1        0.0654
     51 H           2.9591   -3.7420    1.3041 H       1  LIG1        0.0696
     52 H           2.8650   -5.2465    2.1813 H       1  LIG1        0.0696
     53 H          -7.9033    2.2349   -0.4122 H       1  LIG1        0.1166
     54 H          -8.3609    0.8676    0.6293 H       1  LIG1        0.1166
     55 H          -0.5752    0.2015   -3.7019 H       1  LIG1        0.0760
     56 H          -1.7712   -0.8849   -3.0131 H       1  LIG1        0.0760
     57 H           2.5219   -4.1051    4.3425 H       1  LIG1        0.0295
     58 H           2.5585   -2.5354    3.5738 H       1  LIG1        0.0295
     59 H           4.4172    0.7966   -5.9661 H       1  LIG1        0.0660
     60 H           2.7222    0.9696   -5.5007 H       1  LIG1        0.0660
     61 H           3.5766   -0.6146   -5.3173 H       1  LIG1        0.0660
     62 H           4.8916   -4.5195    3.6054 H       1  LIG1        0.0231
     63 H           4.7475   -3.0474    4.5812 H       1  LIG1        0.0231
     64 H           4.9128   -2.9260    2.8216 H       1  LIG1        0.0231
@<TRIPOS>BOND
     1     1    17   ar
     2     2    17   ar
     3     3    20    1
     4     3    32    1
     5     4    21    1
     6     4    34    1
     7     5    26    1
     8     5    33    1
     9     6    30    1
    10     6    33    1
    11     7    31    1
    12     7    37    1
    13     8    36   ar
    14     9    36   ar
    15    10    11    1
    16    10    12    1
    17    10    17    1
    18    11    13    1
    19    11    16    1
    20    12    14    1
    21    12    15    1
    22    13    14   ar
    23    13    18   ar
    24    14    19   ar
    25    15    22   ar
    26    15    23   ar
    27    16    21   ar
    28    16    25   ar
    29    18    20   ar
    30    19    24   ar
    31    20    24   ar
    32    21    28   ar
    33    22    26   ar
    34    23    27   ar
    35    25    29   ar
    36    26    30   ar
    37    27    30   ar
    38    28    31   ar
    39    29    31   ar
    40    32    35    1
    41    34    36    1
    42    35    38    1
    43    10    39    1
    44    11    40    1
    45    12    41    1
    46    18    42    1
    47    19    43    1
    48    22    44    1
    49    23    45    1
    50    24    46    1
    51    25    47    1
    52    27    48    1
    53    28    49    1
    54    29    50    1
    55    32    51    1
    56    32    52    1
    57    33    53    1
    58    33    54    1
    59    34    55    1
    60    34    56    1
    61    35    57    1
    62    35    58    1
    63    37    59    1
    64    37    60    1
    65    37    61    1
    66    38    62    1
    67    38    63    1
    68    38    64    1
@<TRIPOS>MOLECULE
108002
 64 68 0 0 0
SMALL
GASTEIGER

@<TRIPOS>ATOM
      1 O           0.6173    3.1725    1.1917 O.co2   1  LIG1       -0.5495
      2 O          -1.6344    3.3118    1.3893 O.co2   1  LIG1       -0.5495
      3 O           1.0816   -4.2699    2.1190 O.3     1  LIG1       -0.4920
      4 O           0.0022   -0.9266   -1.9892 O.3     1  LIG1       -0.4858
      5 O          -6.5771    1.7879    1.1172 O.3     1  LIG1       -0.4526
      6 O          -6.9894    0.4333   -0.8384 O.3     1  LIG1       -0.4526
      7 O           4.1847    0.6695   -3.9205 O.3     1  LIG1       -0.4950
      8 O           0.3692   -2.8751   -3.9252 O.co2   1  LIG1       -0.5463
      9 O          -1.1571   -1.9022   -5.3018 O.co2   1  LIG1       -0.5463
     10 C          -0.7132    1.3155    0.4694 C.3     1  LIG1        0.0203
     11 C           0.6067    0.5084    0.5425 C.3     1  LIG1        0.0218
     12 C          -1.7682    0.5467    1.3134 C.3     1  LIG1        0.0184
     13 C           0.1755   -0.8446    1.0573 C.ar    1  LIG1       -0.0320
     14 C          -1.1431   -0.8188    1.5049 C.ar    1  LIG1       -0.0353
     15 C          -3.1553    0.4939    0.6844 C.ar    1  LIG1       -0.0356
     16 C           1.4547    0.5105   -0.7255 C.ar    1  LIG1        0.0026
     17 C          -0.5594    2.7242    1.0695 C.2     1  LIG1        0.0466
     18 C           0.9649   -1.9798    1.2209 C.ar    1  LIG1       -0.0159
     19 C          -1.7100   -1.9398    2.0971 C.ar    1  LIG1       -0.0542
     20 C           0.4151   -3.1042    1.8402 C.ar    1  LIG1        0.1208
     21 C           1.1555   -0.1832   -1.9120 C.ar    1  LIG1        0.1283
     22 C          -4.2032    1.2386    1.2529 C.ar    1  LIG1       -0.0124
     23 C          -3.4156   -0.2926   -0.4631 C.ar    1  LIG1       -0.0543
     24 C          -0.9274   -3.0866    2.2500 C.ar    1  LIG1       -0.0196
     25 C           2.6364    1.2805   -0.6967 C.ar    1  LIG1       -0.0510
     26 C          -5.4544    1.1529    0.6794 C.ar    1  LIG1        0.1665
     27 C          -4.6906   -0.3522   -1.0329 C.ar    1  LIG1       -0.0159
     28 C           2.0691   -0.1702   -2.9819 C.ar    1  LIG1        0.0221
     29 C           3.5166    1.3157   -1.7807 C.ar    1  LIG1       -0.0194
     30 C          -5.6908    0.3787   -0.4334 C.ar    1  LIG1        0.1662
     31 C           3.2421    0.5811   -2.9284 C.ar    1  LIG1        0.1236
     32 C           2.5070   -4.2045    2.1976 C.3     1  LIG1        0.0893
     33 C          -7.5281    1.3553    0.1283 C.3     1  LIG1        0.2332
     34 C          -0.7065   -0.8126   -3.2483 C.3     1  LIG1        0.1287
     35 C           2.9540   -3.5489    3.5054 C.3     1  LIG1       -0.0215
     36 C          -0.4750   -1.9864   -4.2303 C.2     1  LIG1        0.0789
     37 C           3.8589    0.0188   -5.1441 C.3     1  LIG1        0.0788
     38 C           4.4655   -3.5084    3.6340 C.3     1  LIG1       -0.0622
     39 H          -1.0421    1.4379   -0.5711 H       1  LIG1        0.0379
     40 H           1.2320    0.8917    1.3620 H       1  LIG1        0.0405
     41 H          -1.8498    0.9723    2.3238 H       1  LIG1        0.0404
     42 H           1.9851   -1.9484    0.8604 H       1  LIG1        0.0657
     43 H          -2.7393   -1.9230    2.4385 H       1  LIG1        0.0622
     44 H          -4.0244    1.8828    2.1086 H       1  LIG1        0.0658
     45 H          -2.6058   -0.8675   -0.9095 H       1  LIG1        0.0622
     46 H          -1.3568   -3.9702    2.7112 H       1  LIG1        0.0654
     47 H           2.8649    1.8776    0.1857 H       1  LIG1        0.0623
     48 H          -4.8739   -0.9523   -1.9157 H       1  LIG1        0.0655
     49 H           1.8528   -0.7854   -3.8470 H       1  LIG1        0.0691
     50 H           4.4156    1.9201   -1.7215 H       1  LIG1        0.0654
     51 H           2.9528   -3.7405    1.3115 H       1  LIG1        0.0696
     52 H           2.8582   -5.2433    2.1913 H       1  LIG1        0.0696
     53 H          -7.9097    2.2361   -0.4012 H       1  LIG1        0.1166
     54 H          -8.3660    0.8692    0.6412 H       1  LIG1        0.1166
     55 H          -0.5024    0.1454   -3.7430 H       1  LIG1        0.0760
     56 H          -1.7733   -0.8136   -3.0060 H       1  LIG1        0.0760
     57 H           2.5234   -4.0984    4.3516 H       1  LIG1        0.0295
     58 H           2.5598   -2.5297    3.5805 H       1  LIG1        0.0295
     59 H           4.6674    0.2222   -5.8531 H       1  LIG1        0.0660
     60 H           2.9352    0.4195   -5.5743 H       1  LIG1        0.0660
     61 H           3.8012   -1.0662   -5.0127 H       1  LIG1        0.0660
     62 H           4.8907   -4.5166    3.6071 H       1  LIG1        0.0231
     63 H           4.7518   -3.0443    4.5835 H       1  LIG1        0.0231
     64 H           4.9114   -2.9231    2.8231 H       1  LIG1        0.0231
@<TRIPOS>BOND
     1     1    17   ar
     2     2    17   ar
     3     3    20    1
     4     3    32    1
     5     4    21    1
     6     4    34    1
     7     5    26    1
     8     5    33    1
     9     6    30    1
    10     6    33    1
    11     7    31    1
    12     7    37    1
    13     8    36   ar
    14     9    36   ar
    15    10    11    1
    16    10    12    1
    17    10    17    1
    18    11    13    1
    19    11    16    1
    20    12    14    1
    21    12    15    1
    22    13    14   ar
    23    13    18   ar
    24    14    19   ar
    25    15    22   ar
    26    15    23   ar
    27    16    21   ar
    28    16    25   ar
    29    18    20   ar
    30    19    24   ar
    31    20    24   ar
    32    21    28   ar
    33    22    26   ar
    34    23    27   ar
    35    25    29   ar
    36    26    30   ar
    37    27    30   ar
    38    28    31   ar
    39    29    31   ar
    40    32    35    1
    41    34    36    1
    42    35    38    1
    43    10    39    1
    44    11    40    1
    45    12    41    1
    46    18    42    1
    47    19    43    1
    48    22    44    1
    49    23    45    1
    50    24    46    1
    51    25    47    1
    52    27    48    1
    53    28    49    1
    54    29    50    1
    55    32    51    1
    56    32    52    1
    57    33    53    1
    58    33    54    1
    59    34    55    1
    60    34    56    1
    61    35    57    1
    62    35    58    1
    63    37    59    1
    64    37    60    1
    65    37    61    1
    66    38    62    1
    67    38    63    1
    68    38    64    1
@<TRIPOS>MOLECULE
108002
 64 68 0 0 0
SMALL
GASTEIGER

@<TRIPOS>ATOM
      1 O           0.6409    3.1575    1.2397 O.co2   1  LIG1       -0.5495
      2 O          -1.6155    3.3282    1.3544 O.co2   1  LIG1       -0.5495
      3 O           1.1180   -4.2299    2.2152 O.3     1  LIG1       -0.4920
      4 O           0.0068   -0.8914   -1.9896 O.3     1  LIG1       -0.4858
      5 O          -6.5569    1.7795    1.1188 O.3     1  LIG1       -0.4526
      6 O          -6.9653    0.4107   -0.8279 O.3     1  LIG1       -0.4526
      7 O           4.1113    0.8437   -3.9796 O.3     1  LIG1       -0.4950
      8 O          -0.0059   -3.0817   -3.7544 O.co2   1  LIG1       -0.5463
      9 O          -0.4432   -1.6394   -5.4600 O.co2   1  LIG1       -0.5463
     10 C          -0.6892    1.3171    0.4748 C.3     1  LIG1        0.0203
     11 C           0.6280    0.5041    0.5435 C.3     1  LIG1        0.0218
     12 C          -1.7439    0.5545    1.3229 C.3     1  LIG1        0.0184
     13 C           0.1945   -0.8472    1.0594 C.ar    1  LIG1       -0.0320
     14 C          -1.1198   -0.8100    1.5233 C.ar    1  LIG1       -0.0353
     15 C          -3.1311    0.4950    0.6930 C.ar    1  LIG1       -0.0356
     16 C           1.4725    0.5193   -0.7259 C.ar    1  LIG1        0.0026
     17 C          -0.5360    2.7250    1.0749 C.2     1  LIG1        0.0466
     18 C           0.9798   -1.9833    1.2318 C.ar    1  LIG1       -0.0159
     19 C          -1.6851   -1.9175    2.1429 C.ar    1  LIG1       -0.0542
     20 C           0.4345   -3.0839    1.8976 C.ar    1  LIG1        0.1208
     21 C           1.1554   -0.1412   -1.9273 C.ar    1  LIG1        0.1283
     22 C          -4.1814    1.2396    1.2569 C.ar    1  LIG1       -0.0124
     23 C          -3.3883   -0.2991   -0.4499 C.ar    1  LIG1       -0.0543
     24 C          -0.9036   -3.0600    2.3177 C.ar    1  LIG1       -0.0196
     25 C           2.6548    1.2881   -0.6890 C.ar    1  LIG1       -0.0510
     26 C          -5.4319    1.1460    0.6847 C.ar    1  LIG1        0.1665
     27 C          -4.6635   -0.3678   -1.0180 C.ar    1  LIG1       -0.0159
     28 C           2.0412   -0.0751   -3.0183 C.ar    1  LIG1        0.0221
     29 C           3.5106    1.3700   -1.7879 C.ar    1  LIG1       -0.0194
     30 C          -5.6663    0.3637   -0.4232 C.ar    1  LIG1        0.1662
     31 C           3.2049    0.6931   -2.9622 C.ar    1  LIG1        0.1236
     32 C           2.5305   -4.0746    2.3585 C.3     1  LIG1        0.0893
     33 C          -7.5068    1.3383    0.1319 C.3     1  LIG1        0.2332
     34 C          -0.7056   -0.8293   -3.2486 C.3     1  LIG1        0.1287
     35 C           3.0077   -5.1239    3.3592 C.3     1  LIG1       -0.0215
     36 C          -0.3455   -1.9662   -4.2357 C.2     1  LIG1        0.0789
     37 C           3.6418    0.4743   -5.2736 C.3     1  LIG1        0.0788
     38 C           4.4987   -5.0188    3.6249 C.3     1  LIG1       -0.0622
     39 H          -1.0220    1.4402   -0.5642 H       1  LIG1        0.0379
     40 H           1.2549    0.8833    1.3636 H       1  LIG1        0.0405
     41 H          -1.8271    0.9877    2.3301 H       1  LIG1        0.0404
     42 H           1.9962   -1.9797    0.8573 H       1  LIG1        0.0657
     43 H          -2.7114   -1.8892    2.4952 H       1  LIG1        0.0622
     44 H          -4.0046    1.8889    2.1092 H       1  LIG1        0.0658
     45 H          -2.5763   -0.8742   -0.8929 H       1  LIG1        0.0622
     46 H          -1.3264   -3.9307    2.8089 H       1  LIG1        0.0654
     47 H           2.8974    1.8557    0.2094 H       1  LIG1        0.0623
     48 H          -4.8459   -0.9756   -1.8959 H       1  LIG1        0.0655
     49 H           1.8185   -0.6522   -3.9072 H       1  LIG1        0.0691
     50 H           4.4081    1.9778   -1.7255 H       1  LIG1        0.0654
     51 H           2.7972   -3.0842    2.7466 H       1  LIG1        0.0696
     52 H           3.0094   -4.2289    1.3839 H       1  LIG1        0.0696
     53 H          -7.8902    2.2143   -0.4031 H       1  LIG1        0.1166
     54 H          -8.3438    0.8530    0.6483 H       1  LIG1        0.1166
     55 H          -0.5947    0.1588   -3.7154 H       1  LIG1        0.0760
     56 H          -1.7693   -0.9452   -3.0197 H       1  LIG1        0.0760
     57 H           2.7598   -6.1274    2.9944 H       1  LIG1        0.0295
     58 H           2.4578   -5.0013    4.3008 H       1  LIG1        0.0295
     59 H           4.3918    0.7976   -6.0017 H       1  LIG1        0.0660
     60 H           2.7024    0.9810   -5.5196 H       1  LIG1        0.0660
     61 H           3.5442   -0.6131   -5.3604 H       1  LIG1        0.0660
     62 H           5.0732   -5.2088    2.7129 H       1  LIG1        0.0231
     63 H           4.8016   -5.7517    4.3792 H       1  LIG1        0.0231
     64 H           4.7624   -4.0234    3.9963 H       1  LIG1        0.0231
@<TRIPOS>BOND
     1     1    17   ar
     2     2    17   ar
     3     3    20    1
     4     3    32    1
     5     4    21    1
     6     4    34    1
     7     5    26    1
     8     5    33    1
     9     6    30    1
    10     6    33    1
    11     7    31    1
    12     7    37    1
    13     8    36   ar
    14     9    36   ar
    15    10    11    1
    16    10    12    1
    17    10    17    1
    18    11    13    1
    19    11    16    1
    20    12    14    1
    21    12    15    1
    22    13    14   ar
    23    13    18   ar
    24    14    19   ar
    25    15    22   ar
    26    15    23   ar
    27    16    21   ar
    28    16    25   ar
    29    18    20   ar
    30    19    24   ar
    31    20    24   ar
    32    21    28   ar
    33    22    26   ar
    34    23    27   ar
    35    25    29   ar
    36    26    30   ar
    37    27    30   ar
    38    28    31   ar
    39    29    31   ar
    40    32    35    1
    41    34    36    1
    42    35    38    1
    43    10    39    1
    44    11    40    1
    45    12    41    1
    46    18    42    1
    47    19    43    1
    48    22    44    1
    49    23    45    1
    50    24    46    1
    51    25    47    1
    52    27    48    1
    53    28    49    1
    54    29    50    1
    55    32    51    1
    56    32    52    1
    57    33    53    1
    58    33    54    1
    59    34    55    1
    60    34    56    1
    61    35    57    1
    62    35    58    1
    63    37    59    1
    64    37    60    1
    65    37    61    1
    66    38    62    1
    67    38    63    1
    68    38    64    1
@<TRIPOS>MOLECULE
108002
 64 68 0 0 0
SMALL
GASTEIGER

@<TRIPOS>ATOM
      1 O           0.5898    3.3053    0.8962 O.co2   1  LIG1       -0.5495
      2 O          -1.4677    3.1826    1.8269 O.co2   1  LIG1       -0.5495
      3 O           1.2896   -4.2278    2.0800 O.3     1  LIG1       -0.4920
      4 O           0.0548   -0.9332   -1.9201 O.3     1  LIG1       -0.4858
      5 O          -5.2327   -1.3686   -1.7368 O.3     1  LIG1       -0.4526
      6 O          -6.8148    0.3606   -1.1701 O.3     1  LIG1       -0.4526
      7 O           4.0918    0.8461   -3.9709 O.3     1  LIG1       -0.4950
      8 O           0.3448   -2.5143   -4.2805 O.co2   1  LIG1       -0.5463
      9 O          -1.8650   -2.1374   -4.6644 O.co2   1  LIG1       -0.5463
     10 C          -0.6972    1.3235    0.5295 C.3     1  LIG1        0.0203
     11 C           0.6486    0.5549    0.5913 C.3     1  LIG1        0.0218
     12 C          -1.7411    0.4944    1.3290 C.3     1  LIG1        0.0184
     13 C           0.2626   -0.8110    1.1049 C.ar    1  LIG1       -0.0320
     14 C          -1.0654   -0.8460    1.5204 C.ar    1  LIG1       -0.0353
     15 C          -3.1121    0.4517    0.6603 C.ar    1  LIG1       -0.0356
     16 C           1.4785    0.5677   -0.6886 C.ar    1  LIG1        0.0026
     17 C          -0.5079    2.7250    1.1402 C.2     1  LIG1        0.0466
     18 C           1.0966   -1.9136    1.2689 C.ar    1  LIG1       -0.0159
     19 C          -1.5895   -1.9965    2.0969 C.ar    1  LIG1       -0.0542
     20 C           0.5839   -3.0744    1.8501 C.ar    1  LIG1        0.1208
     21 C           1.1718   -0.1344   -1.8673 C.ar    1  LIG1        0.1283
     22 C          -3.4639   -0.5279   -0.2840 C.ar    1  LIG1       -0.0124
     23 C          -4.0575    1.4573    0.9832 C.ar    1  LIG1       -0.0543
     24 C          -0.7627   -3.1152    2.2426 C.ar    1  LIG1       -0.0196
     25 C           2.6447    1.3619   -0.6843 C.ar    1  LIG1       -0.0510
     26 C          -4.7281   -0.4840   -0.8348 C.ar    1  LIG1        0.1665
     27 C          -5.3287    1.4851    0.4011 C.ar    1  LIG1       -0.0159
     28 C           2.0511   -0.0866   -2.9632 C.ar    1  LIG1        0.0221
     29 C           3.4923    1.4294   -1.7917 C.ar    1  LIG1       -0.0194
     30 C          -5.6354    0.4960   -0.5055 C.ar    1  LIG1        0.1662
     31 C           3.1963    0.7085   -2.9416 C.ar    1  LIG1        0.1236
     32 C           2.7134   -4.1165    2.1113 C.3     1  LIG1        0.0893
     33 C          -6.5128   -0.7768   -2.0070 C.3     1  LIG1        0.2332
     34 C          -0.7652   -0.7249   -3.0980 C.3     1  LIG1        0.1287
     35 C           3.3231   -4.4544    0.7532 C.3     1  LIG1       -0.0215
     36 C          -0.7562   -1.9236   -4.0789 C.2     1  LIG1        0.0789
     37 C           3.6250    0.4062   -5.2436 C.3     1  LIG1        0.0788
     38 C           4.8326   -4.2867    0.7673 C.3     1  LIG1       -0.0622
     39 H          -1.0202    1.4647   -0.5109 H       1  LIG1        0.0379
     40 H           1.2688    0.9668    1.4020 H       1  LIG1        0.0405
     41 H          -1.8723    0.8842    2.3479 H       1  LIG1        0.0404
     42 H           2.1200   -1.8357    0.9236 H       1  LIG1        0.0657
     43 H          -2.6240   -2.0278    2.4225 H       1  LIG1        0.0622
     44 H          -2.7644   -1.3000   -0.5914 H       1  LIG1        0.0658
     45 H          -3.7786    2.2425    1.6868 H       1  LIG1        0.0622
     46 H          -1.1660   -4.0246    2.6768 H       1  LIG1        0.0654
     47 H           2.8794    1.9634    0.1934 H       1  LIG1        0.0623
     48 H          -6.0353    2.2673    0.6469 H       1  LIG1        0.0655
     49 H           1.8268   -0.7047   -3.8250 H       1  LIG1        0.0691
     50 H           4.3734    2.0604   -1.7548 H       1  LIG1        0.0654
     51 H           3.0607   -4.8564    2.8431 H       1  LIG1        0.0696
     52 H           3.0478   -3.1452    2.4968 H       1  LIG1        0.0696
     53 H          -7.2885   -1.5347   -1.8497 H       1  LIG1        0.1166
     54 H          -6.5444   -0.4588   -3.0559 H       1  LIG1        0.1166
     55 H          -0.5028    0.1932   -3.6389 H       1  LIG1        0.0760
     56 H          -1.7889   -0.5869   -2.7355 H       1  LIG1        0.0760
     57 H           2.8920   -3.8260   -0.0331 H       1  LIG1        0.0295
     58 H           3.0644   -5.4854    0.4846 H       1  LIG1        0.0295
     59 H           4.3603    0.7191   -5.9911 H       1  LIG1        0.0660
     60 H           2.6701    0.8765   -5.5047 H       1  LIG1        0.0660
     61 H           3.5568   -0.6852   -5.2829 H       1  LIG1        0.0660
     62 H           5.1089   -3.2534    1.0031 H       1  LIG1        0.0231
     63 H           5.2529   -4.5344   -0.2119 H       1  LIG1        0.0231
     64 H           5.2942   -4.9430    1.5121 H       1  LIG1        0.0231
@<TRIPOS>BOND
     1     1    17   ar
     2     2    17   ar
     3     3    20    1
     4     3    32    1
     5     4    21    1
     6     4    34    1
     7     5    26    1
     8     5    33    1
     9     6    30    1
    10     6    33    1
    11     7    31    1
    12     7    37    1
    13     8    36   ar
    14     9    36   ar
    15    10    11    1
    16    10    12    1
    17    10    17    1
    18    11    13    1
    19    11    16    1
    20    12    14    1
    21    12    15    1
    22    13    14   ar
    23    13    18   ar
    24    14    19   ar
    25    15    22   ar
    26    15    23   ar
    27    16    21   ar
    28    16    25   ar
    29    18    20   ar
    30    19    24   ar
    31    20    24   ar
    32    21    28   ar
    33    22    26   ar
    34    23    27   ar
    35    25    29   ar
    36    26    30   ar
    37    27    30   ar
    38    28    31   ar
    39    29    31   ar
    40    32    35    1
    41    34    36    1
    42    35    38    1
    43    10    39    1
    44    11    40    1
    45    12    41    1
    46    18    42    1
    47    19    43    1
    48    22    44    1
    49    23    45    1
    50    24    46    1
    51    25    47    1
    52    27    48    1
    53    28    49    1
    54    29    50    1
    55    32    51    1
    56    32    52    1
    57    33    53    1
    58    33    54    1
    59    34    55    1
    60    34    56    1
    61    35    57    1
    62    35    58    1
    63    37    59    1
    64    37    60    1
    65    37    61    1
    66    38    62    1
    67    38    63    1
    68    38    64    1
@<TRIPOS>MOLECULE
108002
 64 68 0 0 0
SMALL
GASTEIGER

@<TRIPOS>ATOM
      1 O           0.0840    2.7064    2.2216 O.co2   1  LIG1       -0.5495
      2 O          -0.9291    3.6877    0.4410 O.co2   1  LIG1       -0.5495
      3 O           1.0532   -4.2270    2.1536 O.3     1  LIG1       -0.4920
      4 O           0.1385   -0.9629   -2.0239 O.3     1  LIG1       -0.4858
      5 O          -5.0871    0.4493   -2.5037 O.3     1  LIG1       -0.4526
      6 O          -6.9556    0.5560   -0.9795 O.3     1  LIG1       -0.4526
      7 O           4.1697    0.9476   -3.9890 O.3     1  LIG1       -0.4950
      8 O           0.5163   -2.1824   -4.9677 O.co2   1  LIG1       -0.5463
      9 O          -1.2885   -3.1151   -3.9413 O.co2   1  LIG1       -0.5463
     10 C          -0.6415    1.3403    0.4022 C.3     1  LIG1        0.0203
     11 C           0.6589    0.5122    0.5034 C.3     1  LIG1        0.0218
     12 C          -1.7383    0.5881    1.2055 C.3     1  LIG1        0.0184
     13 C           0.1832   -0.8396    0.9724 C.ar    1  LIG1       -0.0320
     14 C          -1.1603   -0.8049    1.3496 C.ar    1  LIG1       -0.0353
     15 C          -3.1468    0.6079    0.6220 C.ar    1  LIG1       -0.0356
     16 C           1.5173    0.5431   -0.7570 C.ar    1  LIG1        0.0026
     17 C          -0.4731    2.6990    1.0849 C.2     1  LIG1        0.0466
     18 C           0.9601   -1.9763    1.1768 C.ar    1  LIG1       -0.0159
     19 C          -1.7611   -1.9303    1.8993 C.ar    1  LIG1       -0.0542
     20 C           0.3799   -3.0879    1.7898 C.ar    1  LIG1        0.1208
     21 C           1.2388   -0.1436   -1.9549 C.ar    1  LIG1        0.1283
     22 C          -3.3875    0.5155   -0.7575 C.ar    1  LIG1       -0.0124
     23 C          -4.2567    0.6777    1.5027 C.ar    1  LIG1       -0.0543
     24 C          -0.9857   -3.0750    2.1091 C.ar    1  LIG1       -0.0196
     25 C           2.6668    1.3611   -0.7138 C.ar    1  LIG1       -0.0510
     26 C          -4.6924    0.5148   -1.2036 C.ar    1  LIG1        0.1665
     27 C          -5.5723    0.6612    1.0257 C.ar    1  LIG1       -0.0159
     28 C           2.1318   -0.0475   -3.0352 C.ar    1  LIG1        0.0221
     29 C           3.5284    1.4687   -1.8068 C.ar    1  LIG1       -0.0194
     30 C          -5.7558    0.5817   -0.3361 C.ar    1  LIG1        0.1662
     31 C           3.2614    0.7691   -2.9774 C.ar    1  LIG1        0.1236
     32 C           2.4602   -4.0650    2.3482 C.3     1  LIG1        0.0893
     33 C          -6.5149    0.4625   -2.3516 C.3     1  LIG1        0.2332
     34 C          -0.6004   -0.9245   -3.2702 C.3     1  LIG1        0.1287
     35 C           2.9244   -5.1403    3.3271 C.3     1  LIG1       -0.0215
     36 C          -0.4206   -2.2078   -4.1105 C.2     1  LIG1        0.0789
     37 C           3.7531    0.4860   -5.2716 C.3     1  LIG1        0.0788
     38 C           4.4107   -5.0342    3.6197 C.3     1  LIG1       -0.0622
     39 H          -0.9124    1.5055   -0.6457 H       1  LIG1        0.0379
     40 H           1.2867    0.8716    1.3302 H       1  LIG1        0.0405
     41 H          -1.8004    0.9976    2.2242 H       1  LIG1        0.0404
     42 H           2.0005   -1.9576    0.8757 H       1  LIG1        0.0657
     43 H          -2.8051   -1.9169    2.1905 H       1  LIG1        0.0622
     44 H          -2.5748    0.4436   -1.4691 H       1  LIG1        0.0658
     45 H          -4.0824    0.7435    2.5750 H       1  LIG1        0.0622
     46 H          -1.4383   -3.9534    2.5584 H       1  LIG1        0.0654
     47 H           2.8864    1.9350    0.1856 H       1  LIG1        0.0623
     48 H          -6.4143    0.7119    1.7037 H       1  LIG1        0.0655
     49 H           1.9385   -0.6418   -3.9191 H       1  LIG1        0.0691
     50 H           4.4021    2.1089   -1.7424 H       1  LIG1        0.0654
     51 H           2.6998   -3.0849    2.7797 H       1  LIG1        0.0696
     52 H           2.9717   -4.1795    1.3855 H       1  LIG1        0.0696
     53 H          -6.9236   -0.4564   -2.7880 H       1  LIG1        0.1166
     54 H          -6.9190    1.3187   -2.9044 H       1  LIG1        0.1166
     55 H          -0.3780   -0.0296   -3.8650 H       1  LIG1        0.0760
     56 H          -1.6597   -0.8528   -3.0044 H       1  LIG1        0.0760
     57 H           2.6888   -6.1341    2.9293 H       1  LIG1        0.0295
     58 H           2.3582   -5.0468    4.2622 H       1  LIG1        0.0295
     59 H           4.5006    0.8155   -5.9999 H       1  LIG1        0.0660
     60 H           2.7931    0.9264   -5.5635 H       1  LIG1        0.0660
     61 H           3.7187   -0.6076   -5.3057 H       1  LIG1        0.0660
     62 H           5.0010   -5.1974    2.7126 H       1  LIG1        0.0231
     63 H           4.7067   -5.7850    4.3590 H       1  LIG1        0.0231
     64 H           4.6633   -4.0472    4.0209 H       1  LIG1        0.0231
@<TRIPOS>BOND
     1     1    17   ar
     2     2    17   ar
     3     3    20    1
     4     3    32    1
     5     4    21    1
     6     4    34    1
     7     5    26    1
     8     5    33    1
     9     6    30    1
    10     6    33    1
    11     7    31    1
    12     7    37    1
    13     8    36   ar
    14     9    36   ar
    15    10    11    1
    16    10    12    1
    17    10    17    1
    18    11    13    1
    19    11    16    1
    20    12    14    1
    21    12    15    1
    22    13    14   ar
    23    13    18   ar
    24    14    19   ar
    25    15    22   ar
    26    15    23   ar
    27    16    21   ar
    28    16    25   ar
    29    18    20   ar
    30    19    24   ar
    31    20    24   ar
    32    21    28   ar
    33    22    26   ar
    34    23    27   ar
    35    25    29   ar
    36    26    30   ar
    37    27    30   ar
    38    28    31   ar
    39    29    31   ar
    40    32    35    1
    41    34    36    1
    42    35    38    1
    43    10    39    1
    44    11    40    1
    45    12    41    1
    46    18    42    1
    47    19    43    1
    48    22    44    1
    49    23    45    1
    50    24    46    1
    51    25    47    1
    52    27    48    1
    53    28    49    1
    54    29    50    1
    55    32    51    1
    56    32    52    1
    57    33    53    1
    58    33    54    1
    59    34    55    1
    60    34    56    1
    61    35    57    1
    62    35    58    1
    63    37    59    1
    64    37    60    1
    65    37    61    1
    66    38    62    1
    67    38    63    1
    68    38    64    1
@<TRIPOS>MOLECULE
108002
 64 68 0 0 0
SMALL
GASTEIGER

@<TRIPOS>ATOM
      1 O           0.5960    3.3078    0.8606 O.co2   1  LIG1       -0.5495
      2 O          -1.4616    3.1993    1.7922 O.co2   1  LIG1       -0.5495
      3 O           1.2850   -4.2149    2.0950 O.3     1  LIG1       -0.4920
      4 O           0.0352   -0.9673   -1.9117 O.3     1  LIG1       -0.4858
      5 O          -5.2354   -1.3715   -1.7340 O.3     1  LIG1       -0.4526
      6 O          -6.8179    0.3598   -1.1736 O.3     1  LIG1       -0.4526
      7 O           4.1434    0.6514   -3.9559 O.3     1  LIG1       -0.4950
      8 O           0.3121   -2.6016   -4.2395 O.co2   1  LIG1       -0.5463
      9 O          -1.8902   -2.2000   -4.6373 O.co2   1  LIG1       -0.5463
     10 C          -0.6974    1.3274    0.5089 C.3     1  LIG1        0.0203
     11 C           0.6467    0.5578    0.5742 C.3     1  LIG1        0.0218
     12 C          -1.7408    0.5071    1.3180 C.3     1  LIG1        0.0184
     13 C           0.2608   -0.8014    1.1064 C.ar    1  LIG1       -0.0320
     14 C          -1.0670   -0.8323    1.5210 C.ar    1  LIG1       -0.0353
     15 C          -3.1130    0.4599    0.6521 C.ar    1  LIG1       -0.0356
     16 C           1.4723    0.5451   -0.7090 C.ar    1  LIG1        0.0026
     17 C          -0.5039    2.7331    1.1088 C.2     1  LIG1        0.0466
     18 C           1.0942   -1.9037    1.2777 C.ar    1  LIG1       -0.0159
     19 C          -1.5920   -1.9792    2.1040 C.ar    1  LIG1       -0.0542
     20 C           0.5807   -3.0614    1.8631 C.ar    1  LIG1        0.1208
     21 C           1.1648   -0.1858   -1.8694 C.ar    1  LIG1        0.1283
     22 C          -3.4656   -0.5238   -0.2871 C.ar    1  LIG1       -0.0124
     23 C          -4.0584    1.4672    0.9716 C.ar    1  LIG1       -0.0543
     24 C          -0.7662   -3.0985    2.2554 C.ar    1  LIG1       -0.0196
     25 C           2.6435    1.3311   -0.7227 C.ar    1  LIG1       -0.0510
     26 C          -4.7300   -0.4827   -0.8365 C.ar    1  LIG1        0.1665
     27 C          -5.3304    1.4920    0.3907 C.ar    1  LIG1       -0.0159
     28 C           2.0572   -0.1903   -2.9558 C.ar    1  LIG1        0.0221
     29 C           3.5043    1.3478   -1.8232 C.ar    1  LIG1       -0.0194
     30 C          -5.6366    0.4987   -0.5100 C.ar    1  LIG1        0.1662
     31 C           3.2203    0.5780   -2.9451 C.ar    1  LIG1        0.1236
     32 C           2.7086   -4.1058    2.1228 C.3     1  LIG1        0.0893
     33 C          -6.5160   -0.7811   -2.0057 C.3     1  LIG1        0.2332
     34 C          -0.7729   -0.7696   -3.0997 C.3     1  LIG1        0.1287
     35 C           3.3169   -4.4430    0.7630 C.3     1  LIG1       -0.0215
     36 C          -0.7810   -1.9897   -4.0536 C.2     1  LIG1        0.0789
     37 C           3.8020   -0.0401   -5.1536 C.3     1  LIG1        0.0788
     38 C           4.8271   -4.2755    0.7739 C.3     1  LIG1       -0.0622
     39 H          -1.0219    1.4617   -0.5317 H       1  LIG1        0.0379
     40 H           1.2729    0.9778    1.3760 H       1  LIG1        0.0405
     41 H          -1.8700    0.9065    2.3334 H       1  LIG1        0.0404
     42 H           2.1175   -1.8283    0.9311 H       1  LIG1        0.0657
     43 H          -2.6270   -2.0085    2.4286 H       1  LIG1        0.0622
     44 H          -2.7660   -1.2971   -0.5915 H       1  LIG1        0.0658
     45 H          -3.7783    2.2559    1.6709 H       1  LIG1        0.0622
     46 H          -1.1713   -4.0060    2.6926 H       1  LIG1        0.0654
     47 H           2.8773    1.9585    0.1370 H       1  LIG1        0.0623
     48 H          -6.0367    2.2749    0.6338 H       1  LIG1        0.0655
     49 H           1.8260   -0.8290   -3.7993 H       1  LIG1        0.0691
     50 H           4.3942    1.9679   -1.7972 H       1  LIG1        0.0654
     51 H           3.0573   -4.8469    2.8518 H       1  LIG1        0.0696
     52 H           3.0453   -3.1358    2.5078 H       1  LIG1        0.0696
     53 H          -7.2914   -1.5390   -1.8446 H       1  LIG1        0.1166
     54 H          -6.5486   -0.4680   -3.0562 H       1  LIG1        0.1166
     55 H          -0.4889    0.1311   -3.6592 H       1  LIG1        0.0760
     56 H          -1.7964   -0.6033   -2.7478 H       1  LIG1        0.0760
     57 H           2.8837   -3.8133   -0.0234 H       1  LIG1        0.0295
     58 H           3.0568   -5.4738    0.4929 H       1  LIG1        0.0295
     59 H           4.5932    0.1534   -5.8848 H       1  LIG1        0.0660
     60 H           2.8637    0.3354   -5.5769 H       1  LIG1        0.0660
     61 H           3.7625   -1.1222   -4.9892 H       1  LIG1        0.0660
     62 H           5.1023   -3.2429    1.0120 H       1  LIG1        0.0231
     63 H           5.2441   -4.5202   -0.2064 H       1  LIG1        0.0231
     64 H           5.2882   -4.9332    1.5159 H       1  LIG1        0.0231
@<TRIPOS>BOND
     1     1    17   ar
     2     2    17   ar
     3     3    20    1
     4     3    32    1
     5     4    21    1
     6     4    34    1
     7     5    26    1
     8     5    33    1
     9     6    30    1
    10     6    33    1
    11     7    31    1
    12     7    37    1
    13     8    36   ar
    14     9    36   ar
    15    10    11    1
    16    10    12    1
    17    10    17    1
    18    11    13    1
    19    11    16    1
    20    12    14    1
    21    12    15    1
    22    13    14   ar
    23    13    18   ar
    24    14    19   ar
    25    15    22   ar
    26    15    23   ar
    27    16    21   ar
    28    16    25   ar
    29    18    20   ar
    30    19    24   ar
    31    20    24   ar
    32    21    28   ar
    33    22    26   ar
    34    23    27   ar
    35    25    29   ar
    36    26    30   ar
    37    27    30   ar
    38    28    31   ar
    39    29    31   ar
    40    32    35    1
    41    34    36    1
    42    35    38    1
    43    10    39    1
    44    11    40    1
    45    12    41    1
    46    18    42    1
    47    19    43    1
    48    22    44    1
    49    23    45    1
    50    24    46    1
    51    25    47    1
    52    27    48    1
    53    28    49    1
    54    29    50    1
    55    32    51    1
    56    32    52    1
    57    33    53    1
    58    33    54    1
    59    34    55    1
    60    34    56    1
    61    35    57    1
    62    35    58    1
    63    37    59    1
    64    37    60    1
    65    37    61    1
    66    38    62    1
    67    38    63    1
    68    38    64    1
@<TRIPOS>MOLECULE
108002
 64 68 0 0 0
SMALL
GASTEIGER

@<TRIPOS>ATOM
      1 O           0.0957    2.6838    2.2445 O.co2   1  LIG1       -0.5495
      2 O          -0.8992    3.6909    0.4697 O.co2   1  LIG1       -0.5495
      3 O           1.0556   -4.2242    2.1641 O.3     1  LIG1       -0.4920
      4 O           0.0909   -0.9663   -2.0176 O.3     1  LIG1       -0.4858
      5 O          -5.0762    0.4719   -2.5102 O.3     1  LIG1       -0.4526
      6 O          -6.9489    0.5443   -0.9889 O.3     1  LIG1       -0.4526
      7 O           4.2246    0.7321   -3.9679 O.3     1  LIG1       -0.4950
      8 O           0.4920   -2.3034   -4.8881 O.co2   1  LIG1       -0.5463
      9 O          -1.4115   -3.1027   -3.9275 O.co2   1  LIG1       -0.5463
     10 C          -0.6365    1.3428    0.4076 C.3     1  LIG1        0.0203
     11 C           0.6605    0.5090    0.4993 C.3     1  LIG1        0.0218
     12 C          -1.7358    0.5906    1.2089 C.3     1  LIG1        0.0184
     13 C           0.1842   -0.8384    0.9804 C.ar    1  LIG1       -0.0320
     14 C          -1.1580   -0.8019    1.3593 C.ar    1  LIG1       -0.0353
     15 C          -3.1434    0.6075    0.6216 C.ar    1  LIG1       -0.0356
     16 C           1.5107    0.5167   -0.7675 C.ar    1  LIG1        0.0026
     17 C          -0.4560    2.6920    1.1057 C.2     1  LIG1        0.0466
     18 C           0.9610   -1.9754    1.1849 C.ar    1  LIG1       -0.0159
     19 C          -1.7580   -1.9259    1.9131 C.ar    1  LIG1       -0.0542
     20 C           0.3821   -3.0854    1.8013 C.ar    1  LIG1        0.1208
     21 C           1.2184   -0.1839   -1.9540 C.ar    1  LIG1        0.1283
     22 C          -3.3809    0.5300   -0.7591 C.ar    1  LIG1       -0.0124
     23 C          -4.2562    0.6580    1.5002 C.ar    1  LIG1       -0.0543
     24 C          -0.9826   -3.0707    2.1235 C.ar    1  LIG1       -0.0196
     25 C           2.6796    1.3074   -0.7365 C.ar    1  LIG1       -0.0510
     26 C          -4.6848    0.5244   -1.2082 C.ar    1  LIG1        0.1665
     27 C          -5.5708    0.6371    1.0202 C.ar    1  LIG1       -0.0159
     28 C           2.1260   -0.1444   -3.0253 C.ar    1  LIG1        0.0221
     29 C           3.5552    1.3601   -1.8230 C.ar    1  LIG1       -0.0194
     30 C          -5.7508    0.5717   -0.3424 C.ar    1  LIG1        0.1662
     31 C           3.2872    0.6267   -2.9725 C.ar    1  LIG1        0.1236
     32 C           2.4645   -4.0651    2.3497 C.3     1  LIG1        0.0893
     33 C          -6.5042    0.4662   -2.3607 C.3     1  LIG1        0.2332
     34 C          -0.6283   -0.9378   -3.2765 C.3     1  LIG1        0.1287
     35 C           2.9260   -5.1220    3.3500 C.3     1  LIG1       -0.0215
     36 C          -0.4838   -2.2534   -4.0760 C.2     1  LIG1        0.0789
     37 C           3.9168    0.0515   -5.1816 C.3     1  LIG1        0.0788
     38 C           4.4137   -5.0166    3.6362 C.3     1  LIG1       -0.0622
     39 H          -0.9075    1.5214   -0.6373 H       1  LIG1        0.0379
     40 H           1.2990    0.8704    1.3168 H       1  LIG1        0.0405
     41 H          -1.8034    1.0028    2.2260 H       1  LIG1        0.0404
     42 H           2.0004   -1.9582    0.8791 H       1  LIG1        0.0657
     43 H          -2.8015   -1.9120    2.2054 H       1  LIG1        0.0622
     44 H          -2.5663    0.4720   -1.4703 H       1  LIG1        0.0658
     45 H          -4.0849    0.7120    2.5741 H       1  LIG1        0.0622
     46 H          -1.4349   -3.9484    2.5748 H       1  LIG1        0.0654
     47 H           2.9092    1.8950    0.1512 H       1  LIG1        0.0623
     48 H          -6.4146    0.6723    1.6972 H       1  LIG1        0.0655
     49 H           1.9170   -0.7495   -3.8978 H       1  LIG1        0.0691
     50 H           4.4476    1.9740   -1.7649 H       1  LIG1        0.0654
     51 H           2.7125   -3.0786    2.7601 H       1  LIG1        0.0696
     52 H           2.9706   -4.2022    1.3875 H       1  LIG1        0.0696
     53 H          -6.9010   -0.4547   -2.8045 H       1  LIG1        0.1166
     54 H          -6.9179    1.3213   -2.9080 H       1  LIG1        0.1166
     55 H          -0.3652   -0.0694   -3.8928 H       1  LIG1        0.0760
     56 H          -1.6871   -0.8196   -3.0290 H       1  LIG1        0.0760
     57 H           2.6844   -6.1229    2.9736 H       1  LIG1        0.0295
     58 H           2.3632   -5.0055    4.2836 H       1  LIG1        0.0295
     59 H           4.7256    0.2566   -5.8901 H       1  LIG1        0.0660
     60 H           2.9881    0.4276   -5.6241 H       1  LIG1        0.0660
     61 H           3.8793   -1.0323   -5.0302 H       1  LIG1        0.0660
     62 H           5.0004   -5.2048    2.7323 H       1  LIG1        0.0231
     63 H           4.7073   -5.7515    4.3934 H       1  LIG1        0.0231
     64 H           4.6725   -4.0219    4.0129 H       1  LIG1        0.0231
@<TRIPOS>BOND
     1     1    17   ar
     2     2    17   ar
     3     3    20    1
     4     3    32    1
     5     4    21    1
     6     4    34    1
     7     5    26    1
     8     5    33    1
     9     6    30    1
    10     6    33    1
    11     7    31    1
    12     7    37    1
    13     8    36   ar
    14     9    36   ar
    15    10    11    1
    16    10    12    1
    17    10    17    1
    18    11    13    1
    19    11    16    1
    20    12    14    1
    21    12    15    1
    22    13    14   ar
    23    13    18   ar
    24    14    19   ar
    25    15    22   ar
    26    15    23   ar
    27    16    21   ar
    28    16    25   ar
    29    18    20   ar
    30    19    24   ar
    31    20    24   ar
    32    21    28   ar
    33    22    26   ar
    34    23    27   ar
    35    25    29   ar
    36    26    30   ar
    37    27    30   ar
    38    28    31   ar
    39    29    31   ar
    40    32    35    1
    41    34    36    1
    42    35    38    1
    43    10    39    1
    44    11    40    1
    45    12    41    1
    46    18    42    1
    47    19    43    1
    48    22    44    1
    49    23    45    1
    50    24    46    1
    51    25    47    1
    52    27    48    1
    53    28    49    1
    54    29    50    1
    55    32    51    1
    56    32    52    1
    57    33    53    1
    58    33    54    1
    59    34    55    1
    60    34    56    1
    61    35    57    1
    62    35    58    1
    63    37    59    1
    64    37    60    1
    65    37    61    1
    66    38    62    1
    67    38    63    1
    68    38    64    1
@<TRIPOS>MOLECULE
108002
 64 68 0 0 0
SMALL
GASTEIGER

@<TRIPOS>ATOM
      1 O          -0.1745    2.7626    2.2311 O.co2   1  LIG1       -0.5495
      2 O          -1.0485    3.6176    0.3188 O.co2   1  LIG1       -0.5495
      3 O           1.2594   -4.2505    2.0053 O.3     1  LIG1       -0.4920
      4 O           0.0019   -0.9114   -1.8973 O.3     1  LIG1       -0.4858
      5 O          -5.3207   -1.3839   -1.6631 O.3     1  LIG1       -0.4526
      6 O          -6.8535    0.4030   -1.1395 O.3     1  LIG1       -0.4526
      7 O           4.1616    0.6182   -3.9126 O.3     1  LIG1       -0.4950
      8 O           0.3271   -2.6422   -4.1353 O.co2   1  LIG1       -0.5463
      9 O          -1.8578   -2.2431   -4.6241 O.co2   1  LIG1       -0.5463
     10 C          -0.7265    1.2744    0.4503 C.3     1  LIG1        0.0203
     11 C           0.6309    0.5531    0.5876 C.3     1  LIG1        0.0218
     12 C          -1.7569    0.4912    1.3025 C.3     1  LIG1        0.0184
     13 C           0.2493   -0.8092    1.1147 C.ar    1  LIG1       -0.0320
     14 C          -1.0867   -0.8504    1.5086 C.ar    1  LIG1       -0.0353
     15 C          -3.1342    0.4615    0.6517 C.ar    1  LIG1       -0.0356
     16 C           1.4806    0.5390   -0.6800 C.ar    1  LIG1        0.0026
     17 C          -0.6304    2.6766    1.0544 C.2     1  LIG1        0.0466
     18 C           1.0822   -1.9118    1.2751 C.ar    1  LIG1       -0.0159
     19 C          -1.6172   -2.0092    2.0603 C.ar    1  LIG1       -0.0542
     20 C           0.5584   -3.0866    1.8153 C.ar    1  LIG1        0.1208
     21 C           1.1503   -0.1583   -1.8565 C.ar    1  LIG1        0.1283
     22 C          -3.5183   -0.5389   -0.2580 C.ar    1  LIG1       -0.0124
     23 C          -4.0425    1.5101    0.9417 C.ar    1  LIG1       -0.0543
     24 C          -0.7938   -3.1336    2.1887 C.ar    1  LIG1       -0.0196
     25 C           2.6877    1.2661   -0.6582 C.ar    1  LIG1       -0.0510
     26 C          -4.7860   -0.4818   -0.7972 C.ar    1  LIG1        0.1665
     27 C          -5.3189    1.5488    0.3716 C.ar    1  LIG1       -0.0159
     28 C           2.0412   -0.1649   -2.9418 C.ar    1  LIG1        0.0221
     29 C           3.5526    1.2711   -1.7552 C.ar    1  LIG1       -0.0194
     30 C          -5.6625    0.5329   -0.4924 C.ar    1  LIG1        0.1662
     31 C           3.2342    0.5547   -2.9040 C.ar    1  LIG1        0.1236
     32 C           2.6801   -4.1300    2.1013 C.3     1  LIG1        0.0893
     33 C          -6.5895   -0.7707   -1.9382 C.3     1  LIG1        0.2332
     34 C          -0.7828   -0.7611   -3.1056 C.3     1  LIG1        0.1287
     35 C           3.3570   -4.3691    0.7529 C.3     1  LIG1       -0.0215
     36 C          -0.7673   -2.0173   -4.0109 C.2     1  LIG1        0.0789
     37 C           3.7694    0.0224   -5.1459 C.3     1  LIG1        0.0788
     38 C           4.8597   -4.1622    0.8485 C.3     1  LIG1       -0.0622
     39 H          -1.0416    1.3441   -0.5985 H       1  LIG1        0.0379
     40 H           1.2337    1.0030    1.3879 H       1  LIG1        0.0405
     41 H          -1.8747    0.9184    2.3083 H       1  LIG1        0.0404
     42 H           2.1094   -1.8274    0.9451 H       1  LIG1        0.0657
     43 H          -2.6566   -2.0487    2.3676 H       1  LIG1        0.0622
     44 H          -2.8383   -1.3334   -0.5519 H       1  LIG1        0.0658
     45 H          -3.7284    2.3193    1.6015 H       1  LIG1        0.0622
     46 H          -1.2057   -4.0547    2.5892 H       1  LIG1        0.0654
     47 H           2.9589    1.8371    0.2280 H       1  LIG1        0.0623
     48 H          -6.0013    2.3601    0.5882 H       1  LIG1        0.0655
     49 H           1.7899   -0.7738   -3.8019 H       1  LIG1        0.0691
     50 H           4.4784    1.8359   -1.7075 H       1  LIG1        0.0654
     51 H           3.0051   -4.9154    2.7958 H       1  LIG1        0.0696
     52 H           2.9838   -3.1843    2.5647 H       1  LIG1        0.0696
     53 H          -7.3802   -1.5044   -1.7436 H       1  LIG1        0.1166
     54 H          -6.6278   -0.4910   -2.9979 H       1  LIG1        0.1166
     55 H          -0.4917    0.1201   -3.6913 H       1  LIG1        0.0760
     56 H          -1.8138   -0.5869   -2.7787 H       1  LIG1        0.0760
     57 H           2.9460   -3.7059   -0.0154 H       1  LIG1        0.0295
     58 H           3.1410   -5.3877    0.4097 H       1  LIG1        0.0295
     59 H           4.5630    0.2147   -5.8742 H       1  LIG1        0.0660
     60 H           2.8506    0.4758   -5.5330 H       1  LIG1        0.0660
     61 H           3.6684   -1.0639   -5.0477 H       1  LIG1        0.0660
     62 H           5.0932   -3.1443    1.1788 H       1  LIG1        0.0231
     63 H           5.3296   -4.3155   -0.1271 H       1  LIG1        0.0231
     64 H           5.3078   -4.8645    1.5579 H       1  LIG1        0.0231
@<TRIPOS>BOND
     1     1    17   ar
     2     2    17   ar
     3     3    20    1
     4     3    32    1
     5     4    21    1
     6     4    34    1
     7     5    26    1
     8     5    33    1
     9     6    30    1
    10     6    33    1
    11     7    31    1
    12     7    37    1
    13     8    36   ar
    14     9    36   ar
    15    10    11    1
    16    10    12    1
    17    10    17    1
    18    11    13    1
    19    11    16    1
    20    12    14    1
    21    12    15    1
    22    13    14   ar
    23    13    18   ar
    24    14    19   ar
    25    15    22   ar
    26    15    23   ar
    27    16    21   ar
    28    16    25   ar
    29    18    20   ar
    30    19    24   ar
    31    20    24   ar
    32    21    28   ar
    33    22    26   ar
    34    23    27   ar
    35    25    29   ar
    36    26    30   ar
    37    27    30   ar
    38    28    31   ar
    39    29    31   ar
    40    32    35    1
    41    34    36    1
    42    35    38    1
    43    10    39    1
    44    11    40    1
    45    12    41    1
    46    18    42    1
    47    19    43    1
    48    22    44    1
    49    23    45    1
    50    24    46    1
    51    25    47    1
    52    27    48    1
    53    28    49    1
    54    29    50    1
    55    32    51    1
    56    32    52    1
    57    33    53    1
    58    33    54    1
    59    34    55    1
    60    34    56    1
    61    35    57    1
    62    35    58    1
    63    37    59    1
    64    37    60    1
    65    37    61    1
    66    38    62    1
    67    38    63    1
    68    38    64    1
@<TRIPOS>MOLECULE
108002
 64 68 0 0 0
SMALL
GASTEIGER

@<TRIPOS>ATOM
      1 O           0.1018    2.7449    2.0890 O.co2   1  LIG1       -0.5495
      2 O          -1.2546    3.5440    0.4546 O.co2   1  LIG1       -0.5495
      3 O           1.1318   -4.2923    2.1160 O.3     1  LIG1       -0.4920
      4 O           0.1084   -1.0042   -2.0065 O.3     1  LIG1       -0.4858
      5 O          -5.3357   -1.3493   -1.6718 O.3     1  LIG1       -0.4526
      6 O          -6.8527    0.4483   -1.1389 O.3     1  LIG1       -0.4526
      7 O           4.0981    0.9348   -4.0037 O.3     1  LIG1       -0.4950
      8 O           0.4060   -2.4513   -4.4685 O.co2   1  LIG1       -0.5463
      9 O          -1.8480   -2.2355   -4.6801 O.co2   1  LIG1       -0.5463
     10 C          -0.6951    1.2439    0.4121 C.3     1  LIG1        0.0203
     11 C           0.6333    0.4634    0.5184 C.3     1  LIG1        0.0218
     12 C          -1.7408    0.4962    1.2752 C.3     1  LIG1        0.0184
     13 C           0.2061   -0.8937    1.0215 C.ar    1  LIG1       -0.0320
     14 C          -1.1089   -0.8640    1.4872 C.ar    1  LIG1       -0.0353
     15 C          -3.1243    0.4797    0.6345 C.ar    1  LIG1       -0.0356
     16 C           1.4860    0.5064   -0.7407 C.ar    1  LIG1        0.0026
     17 C          -0.5922    2.6364    1.0360 C.2     1  LIG1        0.0466
     18 C           0.9935   -2.0295    1.1763 C.ar    1  LIG1       -0.0159
     19 C          -1.6646   -1.9714    2.1139 C.ar    1  LIG1       -0.0542
     20 C           0.4532   -3.1364    1.8340 C.ar    1  LIG1        0.1208
     21 C           1.2001   -0.1740   -1.9365 C.ar    1  LIG1        0.1283
     22 C          -3.5213   -0.5196   -0.2726 C.ar    1  LIG1       -0.0124
     23 C          -4.0252    1.5333    0.9303 C.ar    1  LIG1       -0.0543
     24 C          -0.8792   -3.1135    2.2728 C.ar    1  LIG1       -0.0196
     25 C           2.6325    1.3281   -0.7067 C.ar    1  LIG1       -0.0510
     26 C          -4.7912   -0.4524   -0.8056 C.ar    1  LIG1        0.1665
     27 C          -5.3038    1.5796    0.3688 C.ar    1  LIG1       -0.0159
     28 C           2.0772   -0.0731   -3.0291 C.ar    1  LIG1        0.0221
     29 C           3.4810    1.4425   -1.8100 C.ar    1  LIG1       -0.0194
     30 C          -5.6591    0.5676   -0.4956 C.ar    1  LIG1        0.1662
     31 C           3.2025    0.7470   -2.9815 C.ar    1  LIG1        0.1236
     32 C           2.5446   -4.1601    2.2790 C.3     1  LIG1        0.0893
     33 C          -6.5951   -0.7183   -1.9511 C.3     1  LIG1        0.2332
     34 C          -0.7369   -0.7759   -3.1617 C.3     1  LIG1        0.1287
     35 C           2.9803   -5.0744    3.4230 C.3     1  LIG1       -0.0215
     36 C          -0.7190   -1.9501   -4.1715 C.2     1  LIG1        0.0789
     37 C           3.6588    0.4914   -5.2847 C.3     1  LIG1        0.0788
     38 C           2.4019   -4.6180    4.7566 C.3     1  LIG1       -0.0622
     39 H          -1.0218    1.3302   -0.6331 H       1  LIG1        0.0379
     40 H           1.2511    0.8562    1.3370 H       1  LIG1        0.0405
     41 H          -1.8383    0.9380    2.2789 H       1  LIG1        0.0404
     42 H           2.0056   -2.0232    0.7892 H       1  LIG1        0.0657
     43 H          -2.6861   -1.9469    2.4769 H       1  LIG1        0.0622
     44 H          -2.8501   -1.3208   -0.5687 H       1  LIG1        0.0658
     45 H          -3.6988    2.3419    1.5847 H       1  LIG1        0.0622
     46 H          -1.2961   -3.9879    2.7624 H       1  LIG1        0.0654
     47 H           2.8596    1.8991    0.1921 H       1  LIG1        0.0623
     48 H          -5.9784    2.3960    0.5893 H       1  LIG1        0.0655
     49 H           1.8650   -0.6696   -3.9089 H       1  LIG1        0.0691
     50 H           4.3537    2.0857   -1.7530 H       1  LIG1        0.0654
     51 H           2.8605   -3.1381    2.5217 H       1  LIG1        0.0696
     52 H           3.0298   -4.4702    1.3470 H       1  LIG1        0.0696
     53 H          -7.3956   -1.4450   -1.7737 H       1  LIG1        0.1166
     54 H          -6.6191   -0.4238   -3.0070 H       1  LIG1        0.1166
     55 H          -0.4991    0.1597   -3.6831 H       1  LIG1        0.0760
     56 H          -1.7561   -0.6663   -2.7760 H       1  LIG1        0.0760
     57 H           4.0736   -5.0820    3.4873 H       1  LIG1        0.0295
     58 H           2.6458   -6.0998    3.2290 H       1  LIG1        0.0295
     59 H           4.3940    0.8290   -6.0209 H       1  LIG1        0.0660
     60 H           2.6949    0.9369   -5.5535 H       1  LIG1        0.0660
     61 H           3.6211   -0.6016   -5.3324 H       1  LIG1        0.0660
     62 H           2.7021   -3.5893    4.9824 H       1  LIG1        0.0231
     63 H           2.7600   -5.2612    5.5671 H       1  LIG1        0.0231
     64 H           1.3078   -4.6604    4.7529 H       1  LIG1        0.0231
@<TRIPOS>BOND
     1     1    17   ar
     2     2    17   ar
     3     3    20    1
     4     3    32    1
     5     4    21    1
     6     4    34    1
     7     5    26    1
     8     5    33    1
     9     6    30    1
    10     6    33    1
    11     7    31    1
    12     7    37    1
    13     8    36   ar
    14     9    36   ar
    15    10    11    1
    16    10    12    1
    17    10    17    1
    18    11    13    1
    19    11    16    1
    20    12    14    1
    21    12    15    1
    22    13    14   ar
    23    13    18   ar
    24    14    19   ar
    25    15    22   ar
    26    15    23   ar
    27    16    21   ar
    28    16    25   ar
    29    18    20   ar
    30    19    24   ar
    31    20    24   ar
    32    21    28   ar
    33    22    26   ar
    34    23    27   ar
    35    25    29   ar
    36    26    30   ar
    37    27    30   ar
    38    28    31   ar
    39    29    31   ar
    40    32    35    1
    41    34    36    1
    42    35    38    1
    43    10    39    1
    44    11    40    1
    45    12    41    1
    46    18    42    1
    47    19    43    1
    48    22    44    1
    49    23    45    1
    50    24    46    1
    51    25    47    1
    52    27    48    1
    53    28    49    1
    54    29    50    1
    55    32    51    1
    56    32    52    1
    57    33    53    1
    58    33    54    1
    59    34    55    1
    60    34    56    1
    61    35    57    1
    62    35    58    1
    63    37    59    1
    64    37    60    1
    65    37    61    1
    66    38    62    1
    67    38    63    1
    68    38    64    1
@<TRIPOS>MOLECULE
108002
 64 68 0 0 0
SMALL
GASTEIGER

@<TRIPOS>ATOM
      1 O           0.1131    3.5022    0.1521 O.co2   1  LIG1       -0.5495
      2 O          -1.2912    3.1088    1.8938 O.co2   1  LIG1       -0.5495
      3 O           1.2768   -4.2394    1.8017 O.3     1  LIG1       -0.4920
      4 O           3.5596    0.5652    0.8280 O.3     1  LIG1       -0.4858
      5 O          -4.9923   -0.7198   -2.3013 O.3     1  LIG1       -0.4526
      6 O          -6.7822    0.5010   -1.2363 O.3     1  LIG1       -0.4526
      7 O           3.9572    0.4372   -4.0696 O.3     1  LIG1       -0.4950
      8 O           6.3098    0.9399    2.8250 O.co2   1  LIG1       -0.5463
      9 O           5.0174   -0.9366    2.9340 O.co2   1  LIG1       -0.5463
     10 C          -0.6622    1.2949    0.4746 C.3     1  LIG1        0.0203
     11 C           0.7102    0.5639    0.6576 C.3     1  LIG1        0.0218
     12 C          -1.7210    0.5041    1.2746 C.3     1  LIG1        0.0184
     13 C           0.2639   -0.8285    1.0782 C.ar    1  LIG1       -0.0320
     14 C          -1.0946   -0.8629    1.3946 C.ar    1  LIG1       -0.0353
     15 C          -3.0929    0.5037    0.6072 C.ar    1  LIG1       -0.0356
     16 C           1.6259    0.5221   -0.5722 C.ar    1  LIG1        0.0026
     17 C          -0.5843    2.7616    0.9039 C.2     1  LIG1        0.0466
     18 C           1.0450   -1.9711    1.2330 C.ar    1  LIG1       -0.0159
     19 C          -1.6986   -2.0308    1.8456 C.ar    1  LIG1       -0.0542
     20 C           0.4484   -3.1520    1.6873 C.ar    1  LIG1        0.1208
     21 C           3.0336    0.5590   -0.4490 C.ar    1  LIG1        0.1283
     22 C          -3.3300   -0.1772   -0.6015 C.ar    1  LIG1       -0.0124
     23 C          -4.1476    1.2308    1.2081 C.ar    1  LIG1       -0.0543
     24 C          -0.9249   -3.1850    1.9708 C.ar    1  LIG1       -0.0196
     25 C           1.0834    0.3766   -1.8652 C.ar    1  LIG1       -0.0510
     26 C          -4.5960   -0.1222   -1.1443 C.ar    1  LIG1        0.1665
     27 C          -5.4245    1.2626    0.6392 C.ar    1  LIG1       -0.0159
     28 C           3.8351    0.5585   -1.6085 C.ar    1  LIG1        0.0221
     29 C           1.8934    0.3523   -3.0017 C.ar    1  LIG1       -0.0194
     30 C          -5.6158    0.5745   -0.5381 C.ar    1  LIG1        0.1662
     31 C           3.2724    0.4601   -2.8823 C.ar    1  LIG1        0.1236
     32 C           0.9527   -5.1222    2.8759 C.3     1  LIG1        0.0893
     33 C          -6.3599   -0.2771   -2.3738 C.3     1  LIG1        0.2332
     34 C           4.9865    0.3764    0.9352 C.3     1  LIG1        0.1287
     35 C           2.1767   -5.9827    3.1732 C.3     1  LIG1       -0.0215
     36 C           5.4397    0.1242    2.3868 C.2     1  LIG1        0.0789
     37 C           5.3652    0.6135   -3.9886 C.3     1  LIG1        0.0788
     38 C           1.9004   -6.9879    4.2777 C.3     1  LIG1       -0.0622
     39 H          -0.9656    1.3326   -0.5768 H       1  LIG1        0.0379
     40 H           1.2402    1.0249    1.5012 H       1  LIG1        0.0405
     41 H          -1.8177    0.8668    2.3060 H       1  LIG1        0.0404
     42 H           2.1145   -1.9378    1.0390 H       1  LIG1        0.0657
     43 H          -2.7530   -2.0419    2.1010 H       1  LIG1        0.0622
     44 H          -2.5368   -0.7250   -1.0997 H       1  LIG1        0.0658
     45 H          -3.9492    1.7972    2.1188 H       1  LIG1        0.0622
     46 H          -1.4091   -4.0971    2.2982 H       1  LIG1        0.0654
     47 H           0.0123    0.2769   -2.0076 H       1  LIG1        0.0623
     48 H          -6.2245    1.8263    1.1019 H       1  LIG1        0.0655
     49 H           4.9085    0.6326   -1.5073 H       1  LIG1        0.0691
     50 H           1.4365    0.2590   -3.9816 H       1  LIG1        0.0654
     51 H           0.1194   -5.7682    2.5752 H       1  LIG1        0.0696
     52 H           0.6771   -4.5616    3.7786 H       1  LIG1        0.0696
     53 H          -7.0074   -1.1578   -2.4531 H       1  LIG1        0.1166
     54 H          -6.4857    0.3294   -3.2787 H       1  LIG1        0.1166
     55 H           5.4959    1.2702    0.5551 H       1  LIG1        0.0760
     56 H           5.2993   -0.5072    0.3643 H       1  LIG1        0.0760
     57 H           3.0168   -5.3379    3.4579 H       1  LIG1        0.0295
     58 H           2.4913   -6.5062    2.2627 H       1  LIG1        0.0295
     59 H           5.7597    0.6134   -5.0095 H       1  LIG1        0.0660
     60 H           5.8367   -0.2170   -3.4527 H       1  LIG1        0.0660
     61 H           5.6211    1.5771   -3.5356 H       1  LIG1        0.0660
     62 H           1.6072   -6.4835    5.2040 H       1  LIG1        0.0231
     63 H           2.7956   -7.5828    4.4834 H       1  LIG1        0.0231
     64 H           1.0960   -7.6731    3.9911 H       1  LIG1        0.0231
@<TRIPOS>BOND
     1     1    17   ar
     2     2    17   ar
     3     3    20    1
     4     3    32    1
     5     4    21    1
     6     4    34    1
     7     5    26    1
     8     5    33    1
     9     6    30    1
    10     6    33    1
    11     7    31    1
    12     7    37    1
    13     8    36   ar
    14     9    36   ar
    15    10    11    1
    16    10    12    1
    17    10    17    1
    18    11    13    1
    19    11    16    1
    20    12    14    1
    21    12    15    1
    22    13    14   ar
    23    13    18   ar
    24    14    19   ar
    25    15    22   ar
    26    15    23   ar
    27    16    21   ar
    28    16    25   ar
    29    18    20   ar
    30    19    24   ar
    31    20    24   ar
    32    21    28   ar
    33    22    26   ar
    34    23    27   ar
    35    25    29   ar
    36    26    30   ar
    37    27    30   ar
    38    28    31   ar
    39    29    31   ar
    40    32    35    1
    41    34    36    1
    42    35    38    1
    43    10    39    1
    44    11    40    1
    45    12    41    1
    46    18    42    1
    47    19    43    1
    48    22    44    1
    49    23    45    1
    50    24    46    1
    51    25    47    1
    52    27    48    1
    53    28    49    1
    54    29    50    1
    55    32    51    1
    56    32    52    1
    57    33    53    1
    58    33    54    1
    59    34    55    1
    60    34    56    1
    61    35    57    1
    62    35    58    1
    63    37    59    1
    64    37    60    1
    65    37    61    1
    66    38    62    1
    67    38    63    1
    68    38    64    1
