@<TRIPOS>MOLECULE
46174111
 44 47 0 0 0
SMALL
GASTEIGER

@<TRIPOS>ATOM
      1 CL          4.0379   -6.9243    1.0481 Cl      1  LIG1       -0.0762
      2 S           1.6699   -4.7231   -0.7506 S.O2    1  LIG1        0.0758
      3 S          -1.1391   -1.5431   -1.4626 S.2     1  LIG1       -0.0918
      4 O           3.6844    1.6429   -4.6094 O.3     1  LIG1       -0.4526
      5 O           3.5002    3.9842   -4.0632 O.3     1  LIG1       -0.4526
      6 O           2.6915   -1.6594   -0.9162 O.2     1  LIG1       -0.2911
      7 O           1.7974   -5.3816   -2.0336 O.2     1  LIG1       -0.1499
      8 O           1.1422   -5.4215    0.4029 O.2     1  LIG1       -0.1499
      9 O           3.7882   -3.1161    1.7839 O.2     1  LIG1       -0.3364
     10 N           3.1562   -4.0372   -0.3857 N.pl3   1  LIG1       -0.1821
     11 N           4.2350   -3.5524    3.0179 N.ar    1  LIG1       -0.0798
     12 C           1.8438    1.2497   -1.4338 C.ar    1  LIG1       -0.0333
     13 C           1.2887    0.2077   -0.4721 C.3     1  LIG1        0.0366
     14 C           1.7368    2.6390   -1.1181 C.ar    1  LIG1       -0.0432
     15 C           0.3928   -3.5638   -1.0655 C.ar    1  LIG1        0.1261
     16 C           0.4156   -2.1732   -1.0605 C.ar    1  LIG1        0.0814
     17 C           2.4904    0.8741   -2.6298 C.ar    1  LIG1       -0.0123
     18 C           1.5271   -1.2557   -0.8364 C.2     1  LIG1        0.1759
     19 C           3.0163    1.8555   -3.4441 C.ar    1  LIG1        0.1665
     20 C           2.9127    3.1850   -3.1341 C.ar    1  LIG1        0.1665
     21 C           2.2728    3.6074   -1.9921 C.ar    1  LIG1       -0.0130
     22 C           1.0236    3.1515    0.1077 C.3     1  LIG1       -0.0393
     23 C          -0.9199   -4.0768   -1.3664 C.ar    1  LIG1       -0.0273
     24 C           4.0181    2.9967   -4.9791 C.3     1  LIG1        0.2332
     25 C          -1.8400   -3.0847   -1.5937 C.ar    1  LIG1       -0.0217
     26 C           3.5824   -4.1828    0.9621 C.ar    1  LIG1        0.2554
     27 C           3.9559   -5.3303    1.6241 C.ar    1  LIG1        0.1262
     28 C           4.3509   -4.8834    2.9084 C.ar    1  LIG1        0.1009
     29 C           4.8864   -5.6717    4.0417 C.3     1  LIG1       -0.0176
     30 H           3.2182   -3.0621   -0.7018 H       1  LIG1        0.1768
     31 H           1.7920    0.3383    0.4959 H       1  LIG1        0.0394
     32 H           0.2307    0.4138   -0.2969 H       1  LIG1        0.0394
     33 H           2.6141   -0.1595   -2.9351 H       1  LIG1        0.0658
     34 H           2.1961    4.6684   -1.7755 H       1  LIG1        0.0658
     35 H           0.8899    2.3866    0.8758 H       1  LIG1        0.0278
     36 H           0.0373    3.5345   -0.1732 H       1  LIG1        0.0278
     37 H           1.6001    3.9607    0.5696 H       1  LIG1        0.0278
     38 H          -1.1618   -5.1342   -1.4117 H       1  LIG1        0.0643
     39 H           3.6132    3.1972   -5.9775 H       1  LIG1        0.1166
     40 H           5.1098    3.0910   -5.0167 H       1  LIG1        0.1166
     41 H          -2.8880   -3.1975   -1.8394 H       1  LIG1        0.0694
     42 H           4.6818   -5.1803    4.9987 H       1  LIG1        0.0294
     43 H           5.9708   -5.7845    3.9412 H       1  LIG1        0.0294
     44 H           4.4384   -6.6692    4.0791 H       1  LIG1        0.0294
@<TRIPOS>BOND
     1     1    27    1
     2     2    10    1
     3     2    15    1
     4     2     8    2
     5     2     7    2
     6     3    16   ar
     7     3    25   ar
     8     4    24    1
     9     4    19    1
    10     5    20    1
    11     5    24    1
    12     6    18    2
    13     9    11   ar
    14     9    26   ar
    15    10    26    1
    16    11    28   ar
    17    12    17   ar
    18    12    14   ar
    19    13    18    1
    20    13    12    1
    21    14    21   ar
    22    14    22    1
    23    15    23   ar
    24    15    16   ar
    25    16    18    1
    26    17    19   ar
    27    19    20   ar
    28    20    21   ar
    29    23    25   ar
    30    26    27   ar
    31    27    28   ar
    32    28    29    1
    33    10    30    1
    34    13    31    1
    35    13    32    1
    36    17    33    1
    37    21    34    1
    38    22    35    1
    39    22    36    1
    40    22    37    1
    41    23    38    1
    42    24    39    1
    43    24    40    1
    44    25    41    1
    45    29    42    1
    46    29    43    1
    47    29    44    1
@<TRIPOS>MOLECULE
46174111
 44 47 0 0 0
SMALL
GASTEIGER

@<TRIPOS>ATOM
      1 CL          1.8665   -7.0329   -3.8730 Cl      1  LIG1       -0.0762
      2 S           1.5918   -4.5996   -0.8799 S.O2    1  LIG1        0.0758
      3 S          -1.2214   -1.4815   -1.5447 S.2     1  LIG1       -0.0918
      4 O           3.1799    0.6681    4.1424 O.3     1  LIG1       -0.4526
      5 O           5.1701    1.7545    3.3186 O.3     1  LIG1       -0.4526
      6 O           2.6140   -1.7229   -1.0824 O.2     1  LIG1       -0.2911
      7 O           1.9720   -4.2303    0.4661 O.2     1  LIG1       -0.1499
      8 O           2.4413   -4.4782   -2.0374 O.2     1  LIG1       -0.1499
      9 O           2.6233   -7.9079   -0.1613 O.2     1  LIG1       -0.3364
     10 N           0.9793   -6.1896   -0.7549 N.pl3   1  LIG1       -0.1821
     11 N           3.5369   -8.7417   -0.7810 N.ar    1  LIG1       -0.0798
     12 C           2.3313    0.5972    0.5540 C.ar    1  LIG1       -0.0333
     13 C           1.2249    0.0933   -0.3548 C.3     1  LIG1        0.0366
     14 C           3.5138    1.2203    0.0661 C.ar    1  LIG1       -0.0432
     15 C           0.2487   -3.5512   -1.2229 C.ar    1  LIG1        0.1261
     16 C           0.3070   -2.1671   -1.1641 C.ar    1  LIG1        0.0814
     17 C           2.1786    0.3848    1.9407 C.ar    1  LIG1       -0.0123
     18 C           1.4682   -1.3232   -0.8783 C.2     1  LIG1        0.1759
     19 C           3.1777    0.8051    2.7897 C.ar    1  LIG1        0.1665
     20 C           4.3082    1.4218    2.3211 C.ar    1  LIG1        0.1665
     21 C           4.5030    1.6462    0.9763 C.ar    1  LIG1       -0.0130
     22 C           3.7867    1.4558   -1.3960 C.3     1  LIG1       -0.0393
     23 C          -1.0481   -4.0368   -1.5793 C.ar    1  LIG1       -0.0273
     24 C           4.4662    1.2354    4.4657 C.3     1  LIG1        0.2332
     25 C          -1.9437   -3.0106   -1.7728 C.ar    1  LIG1       -0.0217
     26 C           1.9817   -7.1524   -1.0949 C.ar    1  LIG1        0.2554
     27 C           2.4093   -7.5356   -2.3460 C.ar    1  LIG1        0.1262
     28 C           3.4116   -8.5029   -2.0939 C.ar    1  LIG1        0.1009
     29 C           4.2569   -9.2305   -3.0683 C.3     1  LIG1       -0.0176
     30 H           0.7470   -6.3017    0.2356 H       1  LIG1        0.1768
     31 H           0.2919    0.1210    0.2206 H       1  LIG1        0.0394
     32 H           1.0784    0.7702   -1.2031 H       1  LIG1        0.0394
     33 H           1.3023   -0.1087    2.3489 H       1  LIG1        0.0658
     34 H           5.4140    2.1264    0.6329 H       1  LIG1        0.0658
     35 H           3.0597    0.9762   -2.0542 H       1  LIG1        0.0278
     36 H           4.7694    1.0505   -1.6615 H       1  LIG1        0.0278
     37 H           3.7773    2.5302   -1.6069 H       1  LIG1        0.0278
     38 H          -1.3156   -5.0814   -1.6904 H       1  LIG1        0.0643
     39 H           5.0831    0.4599    4.9350 H       1  LIG1        0.1166
     40 H           4.3184    2.0494    5.1844 H       1  LIG1        0.1166
     41 H          -2.9886   -3.0848   -2.0453 H       1  LIG1        0.0694
     42 H           4.9854   -9.8766   -2.5672 H       1  LIG1        0.0294
     43 H           4.8124   -8.5244   -3.6941 H       1  LIG1        0.0294
     44 H           3.6396   -9.8581   -3.7187 H       1  LIG1        0.0294
@<TRIPOS>BOND
     1     1    27    1
     2     2    10    1
     3     2    15    1
     4     2     8    2
     5     2     7    2
     6     3    16   ar
     7     3    25   ar
     8     4    24    1
     9     4    19    1
    10     5    20    1
    11     5    24    1
    12     6    18    2
    13     9    11   ar
    14     9    26   ar
    15    10    26    1
    16    11    28   ar
    17    12    17   ar
    18    12    14   ar
    19    13    18    1
    20    13    12    1
    21    14    21   ar
    22    14    22    1
    23    15    23   ar
    24    15    16   ar
    25    16    18    1
    26    17    19   ar
    27    19    20   ar
    28    20    21   ar
    29    23    25   ar
    30    26    27   ar
    31    27    28   ar
    32    28    29    1
    33    10    30    1
    34    13    31    1
    35    13    32    1
    36    17    33    1
    37    21    34    1
    38    22    35    1
    39    22    36    1
    40    22    37    1
    41    23    38    1
    42    24    39    1
    43    24    40    1
    44    25    41    1
    45    29    42    1
    46    29    43    1
    47    29    44    1
@<TRIPOS>MOLECULE
46174111
 44 47 0 0 0
SMALL
GASTEIGER

@<TRIPOS>ATOM
      1 CL          3.1265   -7.3694    1.2348 Cl      1  LIG1       -0.0762
      2 S           1.6439   -4.5489   -0.6631 S.O2    1  LIG1        0.0758
      3 S          -1.2798   -1.5634   -1.5520 S.2     1  LIG1       -0.0918
      4 O           4.2853    2.2120    2.1481 O.3     1  LIG1       -0.4526
      5 O           5.7447    3.2106    0.5080 O.3     1  LIG1       -0.4526
      6 O           2.2316   -1.6383    0.0552 O.2     1  LIG1       -0.2911
      7 O           2.5628   -4.1866   -1.7211 O.2     1  LIG1       -0.1499
      8 O           1.0803   -5.8745   -0.5594 O.2     1  LIG1       -0.1499
      9 O           4.6663   -3.7978    1.2487 O.2     1  LIG1       -0.3364
     10 N           2.2848   -4.0869    0.8311 N.pl3   1  LIG1       -0.1821
     11 N           5.8064   -4.5453    1.4703 N.ar    1  LIG1       -0.0798
     12 C           2.5140    1.0326   -0.8674 C.ar    1  LIG1       -0.0333
     13 C           1.3140    0.1787   -1.2516 C.3     1  LIG1        0.0366
     14 C           3.3537    1.6585   -1.8332 C.ar    1  LIG1       -0.0432
     15 C           0.2506   -3.5496   -1.0171 C.ar    1  LIG1        0.1261
     16 C           0.2521   -2.1618   -1.0590 C.ar    1  LIG1        0.0814
     17 C           2.7783    1.2303    0.5056 C.ar    1  LIG1       -0.0123
     18 C           1.3381   -1.2519   -0.7004 C.2     1  LIG1        0.1759
     19 C           3.8813    1.9682    0.8732 C.ar    1  LIG1        0.1665
     20 C           4.7090    2.5360   -0.0587 C.ar    1  LIG1        0.1665
     21 C           4.4707    2.4069   -1.4091 C.ar    1  LIG1       -0.0130
     22 C           3.1210    1.5240   -3.3148 C.3     1  LIG1       -0.0393
     23 C          -1.0190   -4.1030   -1.3836 C.ar    1  LIG1       -0.0273
     24 C           5.4968    2.9570    1.9067 C.3     1  LIG1        0.2332
     25 C          -1.9405   -3.1294   -1.6904 C.ar    1  LIG1       -0.0217
     26 C           3.5921   -4.6206    1.0681 C.ar    1  LIG1        0.2554
     27 C           4.0105   -5.9232    1.2259 C.ar    1  LIG1        0.1262
     28 C           5.4061   -5.8222    1.4555 C.ar    1  LIG1        0.1009
     29 C           6.3861   -6.9068    1.6933 C.3     1  LIG1       -0.0176
     30 H           2.3807   -3.0586    0.8307 H       1  LIG1        0.1768
     31 H           0.4212    0.6947   -0.8796 H       1  LIG1        0.0394
     32 H           1.2284    0.0963   -2.3389 H       1  LIG1        0.0394
     33 H           2.1540    0.7881    1.2759 H       1  LIG1        0.0658
     34 H           5.1438    2.8749   -2.1206 H       1  LIG1        0.0658
     35 H           2.0734    1.7171   -3.5649 H       1  LIG1        0.0278
     36 H           3.4048    0.5224   -3.6511 H       1  LIG1        0.0278
     37 H           3.7129    2.2539   -3.8783 H       1  LIG1        0.0278
     38 H          -1.2384   -5.1648   -1.4300 H       1  LIG1        0.0643
     39 H           6.3432    2.3934    2.3171 H       1  LIG1        0.1166
     40 H           5.4270    3.9171    2.4301 H       1  LIG1        0.1166
     41 H          -2.9689   -3.2659   -1.9992 H       1  LIG1        0.0694
     42 H           7.4150   -6.5330    1.6590 H       1  LIG1        0.0294
     43 H           6.2910   -7.6882    0.9327 H       1  LIG1        0.0294
     44 H           6.2227   -7.3579    2.6773 H       1  LIG1        0.0294
@<TRIPOS>BOND
     1     1    27    1
     2     2    10    1
     3     2    15    1
     4     2     8    2
     5     2     7    2
     6     3    16   ar
     7     3    25   ar
     8     4    24    1
     9     4    19    1
    10     5    20    1
    11     5    24    1
    12     6    18    2
    13     9    11   ar
    14     9    26   ar
    15    10    26    1
    16    11    28   ar
    17    12    17   ar
    18    12    14   ar
    19    13    18    1
    20    13    12    1
    21    14    21   ar
    22    14    22    1
    23    15    23   ar
    24    15    16   ar
    25    16    18    1
    26    17    19   ar
    27    19    20   ar
    28    20    21   ar
    29    23    25   ar
    30    26    27   ar
    31    27    28   ar
    32    28    29    1
    33    10    30    1
    34    13    31    1
    35    13    32    1
    36    17    33    1
    37    21    34    1
    38    22    35    1
    39    22    36    1
    40    22    37    1
    41    23    38    1
    42    24    39    1
    43    24    40    1
    44    25    41    1
    45    29    42    1
    46    29    43    1
    47    29    44    1
@<TRIPOS>MOLECULE
46174111
 44 47 0 0 0
SMALL
GASTEIGER

@<TRIPOS>ATOM
      1 CL          5.4481   -3.3557    1.2139 Cl      1  LIG1       -0.0762
      2 S           1.3987   -4.6268   -0.7947 S.O2    1  LIG1        0.0758
      3 S          -1.3081   -1.3984   -1.5227 S.2     1  LIG1       -0.0918
      4 O           2.0290    2.2275   -5.1883 O.3     1  LIG1       -0.4526
      5 O           4.2401    3.0118   -4.6277 O.3     1  LIG1       -0.4526
      6 O           2.4601   -1.7669   -0.5054 O.2     1  LIG1       -0.2911
      7 O           2.1843   -4.5632   -2.0062 O.2     1  LIG1       -0.1499
      8 O           0.6824   -5.8208   -0.4024 O.2     1  LIG1       -0.1499
      9 O           3.0554   -6.4081    1.0508 O.2     1  LIG1       -0.3364
     10 N           2.3468   -4.0984    0.4894 N.pl3   1  LIG1       -0.1821
     11 N           4.2080   -7.0549    1.4640 N.ar    1  LIG1       -0.0798
     12 C           2.1306    0.9811   -1.7192 C.ar    1  LIG1       -0.0333
     13 C           1.2438    0.2675   -0.7185 C.3     1  LIG1        0.0366
     14 C           3.4466    1.4207   -1.3991 C.ar    1  LIG1       -0.0432
     15 C           0.1149   -3.4831   -1.1066 C.ar    1  LIG1        0.1261
     16 C           0.2078   -2.0949   -1.0920 C.ar    1  LIG1        0.0814
     17 C           1.6134    1.2154   -3.0103 C.ar    1  LIG1       -0.0123
     18 C           1.3683   -1.2560   -0.7804 C.2     1  LIG1        0.1759
     19 C           2.3913    1.8996   -3.9194 C.ar    1  LIG1        0.1665
     20 C           3.6483    2.3445   -3.6017 C.ar    1  LIG1        0.1665
     21 C           4.2007    2.1226   -2.3599 C.ar    1  LIG1       -0.0130
     22 C           4.0551    1.2333   -0.0342 C.3     1  LIG1       -0.0393
     23 C          -1.1927   -3.9431   -1.4799 C.ar    1  LIG1       -0.0273
     24 C           3.2032    2.9423   -5.6281 C.3     1  LIG1        0.2332
     25 C          -2.0609   -2.9095   -1.7247 C.ar    1  LIG1       -0.0217
     26 C           3.2993   -5.0752    0.9048 C.ar    1  LIG1        0.2554
     27 C           4.6124   -4.8312    1.2335 C.ar    1  LIG1        0.1262
     28 C           5.1432   -6.1010    1.5598 C.ar    1  LIG1        0.1009
     29 C           6.5276   -6.4597    1.9432 C.3     1  LIG1       -0.0176
     30 H           2.7765   -3.1874    0.2693 H       1  LIG1        0.1768
     31 H           1.4928    0.5724    0.3052 H       1  LIG1        0.0394
     32 H           0.2193    0.6231   -0.8483 H       1  LIG1        0.0394
     33 H           0.6178    0.8909   -3.2963 H       1  LIG1        0.0658
     34 H           5.1968    2.4927   -2.1378 H       1  LIG1        0.0658
     35 H           3.7767    0.2744    0.4091 H       1  LIG1        0.0278
     36 H           3.7347    2.0429    0.6288 H       1  LIG1        0.0278
     37 H           5.1493    1.2413   -0.0896 H       1  LIG1        0.0278
     38 H          -1.4729   -4.9885   -1.5654 H       1  LIG1        0.0643
     39 H           2.9101    3.9633   -5.8995 H       1  LIG1        0.1166
     40 H           3.6060    2.4443   -6.5174 H       1  LIG1        0.1166
     41 H          -3.0998   -2.9759   -2.0208 H       1  LIG1        0.0694
     42 H           6.5704   -7.4488    2.4115 H       1  LIG1        0.0294
     43 H           6.9376   -5.7368    2.6551 H       1  LIG1        0.0294
     44 H           7.1710   -6.4763    1.0576 H       1  LIG1        0.0294
@<TRIPOS>BOND
     1     1    27    1
     2     2    10    1
     3     2    15    1
     4     2     8    2
     5     2     7    2
     6     3    16   ar
     7     3    25   ar
     8     4    24    1
     9     4    19    1
    10     5    20    1
    11     5    24    1
    12     6    18    2
    13     9    11   ar
    14     9    26   ar
    15    10    26    1
    16    11    28   ar
    17    12    17   ar
    18    12    14   ar
    19    13    18    1
    20    13    12    1
    21    14    21   ar
    22    14    22    1
    23    15    23   ar
    24    15    16   ar
    25    16    18    1
    26    17    19   ar
    27    19    20   ar
    28    20    21   ar
    29    23    25   ar
    30    26    27   ar
    31    27    28   ar
    32    28    29    1
    33    10    30    1
    34    13    31    1
    35    13    32    1
    36    17    33    1
    37    21    34    1
    38    22    35    1
    39    22    36    1
    40    22    37    1
    41    23    38    1
    42    24    39    1
    43    24    40    1
    44    25    41    1
    45    29    42    1
    46    29    43    1
    47    29    44    1
@<TRIPOS>MOLECULE
46174111
 44 47 0 0 0
SMALL
GASTEIGER

@<TRIPOS>ATOM
      1 CL          4.6325   -7.1930   -1.3736 Cl      1  LIG1       -0.0762
      2 S           1.5839   -4.4251   -0.6388 S.O2    1  LIG1        0.0758
      3 S          -1.3448   -1.4787   -1.5801 S.2     1  LIG1       -0.0918
      4 O           4.8367    3.2912   -1.7155 O.3     1  LIG1       -0.4526
      5 O           5.8842    3.1110    0.4502 O.3     1  LIG1       -0.4526
      6 O           2.4204   -1.4838   -1.7681 O.2     1  LIG1       -0.2911
      7 O           0.9902   -5.6815   -0.2174 O.2     1  LIG1       -0.1499
      8 O           2.3136   -3.6079    0.2997 O.2     1  LIG1       -0.1499
      9 O           4.4670   -3.3557   -1.9197 O.2     1  LIG1       -0.3364
     10 N           2.4702   -4.8118   -2.0248 N.pl3   1  LIG1       -0.1821
     11 N           5.8327   -3.4905   -1.7310 N.ar    1  LIG1       -0.0798
     12 C           2.4503    0.9168   -0.2089 C.ar    1  LIG1       -0.0333
     13 C           1.1664    0.1852   -0.5529 C.3     1  LIG1        0.0366
     14 C           3.0898    0.7842    1.0566 C.ar    1  LIG1       -0.0432
     15 C           0.2087   -3.4591   -1.0866 C.ar    1  LIG1        0.1261
     16 C           0.2252   -2.0831   -1.2403 C.ar    1  LIG1        0.0814
     17 C           3.0232    1.7494   -1.1923 C.ar    1  LIG1       -0.0123
     18 C           1.3670   -1.1765   -1.2161 C.2     1  LIG1        0.1759
     19 C           4.1741    2.4417   -0.8856 C.ar    1  LIG1        0.1665
     20 C           4.7706    2.3377    0.3446 C.ar    1  LIG1        0.1665
     21 C           4.2557    1.5259    1.3313 C.ar    1  LIG1       -0.0130
     22 C           2.5339   -0.0865    2.1513 C.3     1  LIG1       -0.0393
     23 C          -1.0979   -4.0098   -1.2855 C.ar    1  LIG1       -0.0273
     24 C           5.9350    3.6896   -0.8703 C.3     1  LIG1        0.2332
     25 C          -2.0332   -3.0396   -1.5620 C.ar    1  LIG1       -0.0217
     26 C           3.8682   -4.5744   -1.8386 C.ar    1  LIG1        0.2554
     27 C           4.8314   -5.5241   -1.5915 C.ar    1  LIG1        0.1262
     28 C           6.0396   -4.7948   -1.5110 C.ar    1  LIG1        0.1009
     29 C           7.4037   -5.2852   -1.2137 C.3     1  LIG1       -0.0176
     30 H           2.2859   -5.8024   -2.1934 H       1  LIG1        0.1768
     31 H           0.5601    0.0687    0.3525 H       1  LIG1        0.0394
     32 H           0.5816    0.8134   -1.2368 H       1  LIG1        0.0394
     33 H           2.5797    1.8514   -2.1777 H       1  LIG1        0.0658
     34 H           4.7526    1.4639    2.2940 H       1  LIG1        0.0658
     35 H           2.1045   -1.0089    1.7508 H       1  LIG1        0.0278
     36 H           1.7654    0.4604    2.7071 H       1  LIG1        0.0278
     37 H           3.3212   -0.3866    2.8516 H       1  LIG1        0.0278
     38 H          -1.3429   -5.0645   -1.2102 H       1  LIG1        0.0643
     39 H           5.9232    4.7816   -0.7741 H       1  LIG1        0.1166
     40 H           6.8744    3.3903   -1.3490 H       1  LIG1        0.1166
     41 H          -3.0912   -3.1719   -1.7466 H       1  LIG1        0.0694
     42 H           8.1576   -4.5122   -1.3979 H       1  LIG1        0.0294
     43 H           7.6512   -6.1491   -1.8380 H       1  LIG1        0.0294
     44 H           7.4765   -5.5834   -0.1629 H       1  LIG1        0.0294
@<TRIPOS>BOND
     1     1    27    1
     2     2    10    1
     3     2    15    1
     4     2     8    2
     5     2     7    2
     6     3    16   ar
     7     3    25   ar
     8     4    24    1
     9     4    19    1
    10     5    20    1
    11     5    24    1
    12     6    18    2
    13     9    11   ar
    14     9    26   ar
    15    10    26    1
    16    11    28   ar
    17    12    17   ar
    18    12    14   ar
    19    13    18    1
    20    13    12    1
    21    14    21   ar
    22    14    22    1
    23    15    23   ar
    24    15    16   ar
    25    16    18    1
    26    17    19   ar
    27    19    20   ar
    28    20    21   ar
    29    23    25   ar
    30    26    27   ar
    31    27    28   ar
    32    28    29    1
    33    10    30    1
    34    13    31    1
    35    13    32    1
    36    17    33    1
    37    21    34    1
    38    22    35    1
    39    22    36    1
    40    22    37    1
    41    23    38    1
    42    24    39    1
    43    24    40    1
    44    25    41    1
    45    29    42    1
    46    29    43    1
    47    29    44    1
@<TRIPOS>MOLECULE
46174111
 44 47 0 0 0
SMALL
GASTEIGER

@<TRIPOS>ATOM
      1 CL         -0.8060   -5.2780    2.2148 Cl      1  LIG1       -0.0762
      2 S           1.3842   -4.6926   -0.7308 S.O2    1  LIG1        0.0758
      3 S          -1.2656   -1.4476   -1.4881 S.2     1  LIG1       -0.0918
      4 O           4.2649    1.3876    2.9396 O.3     1  LIG1       -0.4526
      5 O           2.5012    2.5307    4.1213 O.3     1  LIG1       -0.4526
      6 O           2.4806   -1.9058   -0.4045 O.2     1  LIG1       -0.2911
      7 O           2.3854   -4.4160   -1.7412 O.2     1  LIG1       -0.1499
      8 O           0.7160   -5.9768   -0.6860 O.2     1  LIG1       -0.1499
      9 O           3.0124   -6.0054    2.2410 O.2     1  LIG1       -0.3364
     10 N           2.0253   -4.3007    0.7813 N.pl3   1  LIG1       -0.1821
     11 N           2.5921   -6.9738    3.1405 N.ar    1  LIG1       -0.0798
     12 C           1.5828    0.8551    0.4530 C.ar    1  LIG1       -0.0333
     13 C           1.3997    0.1559   -0.8840 C.3     1  LIG1        0.0366
     14 C           0.5489    1.5474    1.1425 C.ar    1  LIG1       -0.0432
     15 C           0.1106   -3.5591   -1.0851 C.ar    1  LIG1        0.1261
     16 C           0.2365   -2.1747   -1.0721 C.ar    1  LIG1        0.0814
     17 C           2.8716    0.7896    1.0330 C.ar    1  LIG1       -0.0123
     18 C           1.4251   -1.3728   -0.7652 C.2     1  LIG1        0.1759
     19 C           3.0890    1.3768    2.2590 C.ar    1  LIG1        0.1665
     20 C           2.0879    2.0260    2.9289 C.ar    1  LIG1        0.1665
     21 C           0.8199    2.1285    2.4015 C.ar    1  LIG1       -0.0130
     22 C          -0.8544    1.7217    0.6293 C.3     1  LIG1       -0.0393
     23 C          -1.2071   -3.9959   -1.4385 C.ar    1  LIG1       -0.0273
     24 C           3.8851    2.1225    4.1206 C.3     1  LIG1        0.2332
     25 C          -2.0534   -2.9430   -1.6803 C.ar    1  LIG1       -0.0217
     26 C           1.9310   -5.3474    1.7358 C.ar    1  LIG1        0.2554
     27 C           0.7965   -5.8184    2.3567 C.ar    1  LIG1        0.1262
     28 C           1.2583   -6.8539    3.2018 C.ar    1  LIG1        0.1009
     29 C           0.4693   -7.7324    4.0967 C.3     1  LIG1       -0.0176
     30 H           2.9742   -3.9482    0.6267 H       1  LIG1        0.1768
     31 H           0.5387    0.5293   -1.4331 H       1  LIG1        0.0394
     32 H           2.2454    0.4291   -1.5309 H       1  LIG1        0.0394
     33 H           3.6897    0.2749    0.5363 H       1  LIG1        0.0658
     34 H           0.0486    2.6558    2.9559 H       1  LIG1        0.0658
     35 H          -0.9984    1.3625   -0.3890 H       1  LIG1        0.0278
     36 H          -1.1158    2.7867    0.6219 H       1  LIG1        0.0278
     37 H          -1.5588    1.1898    1.2781 H       1  LIG1        0.0278
     38 H          -1.5147   -5.0346   -1.5086 H       1  LIG1        0.0643
     39 H           4.5145    3.0171    4.1940 H       1  LIG1        0.1166
     40 H           4.0661    1.4921    4.9994 H       1  LIG1        0.1166
     41 H          -3.0967   -2.9856   -1.9630 H       1  LIG1        0.0694
     42 H           1.0564   -8.5904    4.4385 H       1  LIG1        0.0294
     43 H          -0.4140   -8.1195    3.5792 H       1  LIG1        0.0294
     44 H           0.1358   -7.1744    4.9775 H       1  LIG1        0.0294
@<TRIPOS>BOND
     1     1    27    1
     2     2    10    1
     3     2    15    1
     4     2     8    2
     5     2     7    2
     6     3    16   ar
     7     3    25   ar
     8     4    24    1
     9     4    19    1
    10     5    20    1
    11     5    24    1
    12     6    18    2
    13     9    11   ar
    14     9    26   ar
    15    10    26    1
    16    11    28   ar
    17    12    17   ar
    18    12    14   ar
    19    13    18    1
    20    13    12    1
    21    14    21   ar
    22    14    22    1
    23    15    23   ar
    24    15    16   ar
    25    16    18    1
    26    17    19   ar
    27    19    20   ar
    28    20    21   ar
    29    23    25   ar
    30    26    27   ar
    31    27    28   ar
    32    28    29    1
    33    10    30    1
    34    13    31    1
    35    13    32    1
    36    17    33    1
    37    21    34    1
    38    22    35    1
    39    22    36    1
    40    22    37    1
    41    23    38    1
    42    24    39    1
    43    24    40    1
    44    25    41    1
    45    29    42    1
    46    29    43    1
    47    29    44    1
@<TRIPOS>MOLECULE
46174111
 44 47 0 0 0
SMALL
GASTEIGER

@<TRIPOS>ATOM
      1 CL          0.6916   -6.0816   -4.1092 Cl      1  LIG1       -0.0762
      2 S           1.5564   -4.7530   -0.7532 S.O2    1  LIG1        0.0758
      3 S          -1.1200   -1.5183   -1.4747 S.2     1  LIG1       -0.0918
      4 O           6.8927    0.1821   -2.3128 O.3     1  LIG1       -0.4526
      5 O           7.0096    2.0409   -0.7794 O.3     1  LIG1       -0.4526
      6 O           1.5659   -0.3019   -1.8552 O.2     1  LIG1       -0.2911
      7 O           1.9304   -4.4973    0.6201 O.2     1  LIG1       -0.1499
      8 O           2.4591   -4.5172   -1.8546 O.2     1  LIG1       -0.1499
      9 O           2.3210   -8.2613   -1.3344 O.2     1  LIG1       -0.3364
     10 N           0.9344   -6.3268   -0.7781 N.pl3   1  LIG1       -0.1821
     11 N           2.8389   -8.8943   -2.4490 N.ar    1  LIG1       -0.0798
     12 C           3.8798   -0.6107   -0.3395 C.ar    1  LIG1       -0.0333
     13 C           2.7756   -1.6546   -0.2914 C.3     1  LIG1        0.0366
     14 C           3.9317    0.5002    0.5463 C.ar    1  LIG1       -0.0432
     15 C           0.2755   -3.6196   -1.0176 C.ar    1  LIG1        0.1261
     16 C           0.4236   -2.2485   -1.1812 C.ar    1  LIG1        0.0814
     17 C           4.8669   -0.7545   -1.3385 C.ar    1  LIG1       -0.0123
     18 C           1.5782   -1.3391   -1.1846 C.2     1  LIG1        0.1759
     19 C           5.8739    0.1807   -1.4128 C.ar    1  LIG1        0.1665
     20 C           5.9383    1.2374   -0.5421 C.ar    1  LIG1        0.1665
     21 C           4.9941    1.4204    0.4453 C.ar    1  LIG1       -0.0130
     22 C           2.9177    0.7153    1.6369 C.3     1  LIG1       -0.0393
     23 C          -1.0878   -4.0488   -1.1302 C.ar    1  LIG1       -0.0273
     24 C           7.5916    1.3816   -1.9233 C.3     1  LIG1        0.2332
     25 C          -1.9440   -3.0040   -1.3789 C.ar    1  LIG1       -0.0217
     26 C           1.5875   -7.1800   -1.7170 C.ar    1  LIG1        0.2554
     27 C           1.5507   -7.1339   -3.0926 C.ar    1  LIG1        0.1262
     28 C           2.3782   -8.2066   -3.5031 C.ar    1  LIG1        0.1009
     29 C           2.7365   -8.6262   -4.8773 C.3     1  LIG1       -0.0176
     30 H           1.0366   -6.7008    0.1689 H       1  LIG1        0.1768
     31 H           3.2319   -2.5912   -0.6100 H       1  LIG1        0.0394
     32 H           2.4333   -1.7966    0.7388 H       1  LIG1        0.0394
     33 H           4.8421   -1.5774   -2.0465 H       1  LIG1        0.0658
     34 H           5.0738    2.2676    1.1189 H       1  LIG1        0.0658
     35 H           1.9334    0.3256    1.3637 H       1  LIG1        0.0278
     36 H           2.7828    1.7849    1.8329 H       1  LIG1        0.0278
     37 H           3.2537    0.2296    2.5582 H       1  LIG1        0.0278
     38 H          -1.4289   -5.0747   -1.0513 H       1  LIG1        0.0643
     39 H           7.5892    2.0790   -2.7692 H       1  LIG1        0.1166
     40 H           8.6294    1.1202   -1.6871 H       1  LIG1        0.1166
     41 H          -3.0165   -3.0420   -1.5189 H       1  LIG1        0.0694
     42 H           3.5883   -9.3145   -4.8764 H       1  LIG1        0.0294
     43 H           3.0114   -7.7604   -5.4882 H       1  LIG1        0.0294
     44 H           1.8905   -9.1317   -5.3531 H       1  LIG1        0.0294
@<TRIPOS>BOND
     1     1    27    1
     2     2    10    1
     3     2    15    1
     4     2     8    2
     5     2     7    2
     6     3    16   ar
     7     3    25   ar
     8     4    24    1
     9     4    19    1
    10     5    20    1
    11     5    24    1
    12     6    18    2
    13     9    11   ar
    14     9    26   ar
    15    10    26    1
    16    11    28   ar
    17    12    17   ar
    18    12    14   ar
    19    13    18    1
    20    13    12    1
    21    14    21   ar
    22    14    22    1
    23    15    23   ar
    24    15    16   ar
    25    16    18    1
    26    17    19   ar
    27    19    20   ar
    28    20    21   ar
    29    23    25   ar
    30    26    27   ar
    31    27    28   ar
    32    28    29    1
    33    10    30    1
    34    13    31    1
    35    13    32    1
    36    17    33    1
    37    21    34    1
    38    22    35    1
    39    22    36    1
    40    22    37    1
    41    23    38    1
    42    24    39    1
    43    24    40    1
    44    25    41    1
    45    29    42    1
    46    29    43    1
    47    29    44    1
@<TRIPOS>MOLECULE
46174111
 44 47 0 0 0
SMALL
GASTEIGER

@<TRIPOS>ATOM
      1 CL          0.1501   -6.5713    2.3457 Cl      1  LIG1       -0.0762
      2 S           1.3606   -4.6096   -0.7663 S.O2    1  LIG1        0.0758
      3 S          -1.2091   -1.3019   -1.5574 S.2     1  LIG1       -0.0918
      4 O           2.5316   -0.0070   -5.6218 O.3     1  LIG1       -0.4526
      5 O           1.9886    2.3138   -5.9877 O.3     1  LIG1       -0.4526
      6 O           2.4052   -1.8438   -0.1407 O.2     1  LIG1       -0.2911
      7 O           2.4079   -4.3088   -1.7180 O.2     1  LIG1       -0.1499
      8 O           0.6741   -5.8812   -0.7666 O.2     1  LIG1       -0.1499
      9 O           3.8235   -5.5287    1.6161 O.2     1  LIG1       -0.3364
     10 N           1.9116   -4.2282    0.7901 N.pl3   1  LIG1       -0.1821
     11 N           4.0559   -6.6932    2.3312 N.ar    1  LIG1       -0.0798
     12 C           1.5586    0.8130   -2.1591 C.ar    1  LIG1       -0.0333
     13 C           1.4209    0.2214   -0.7668 C.3     1  LIG1        0.0366
     14 C           1.2798    2.1974   -2.3757 C.ar    1  LIG1       -0.0432
     15 C           0.1154   -3.4543   -1.1594 C.ar    1  LIG1        0.1261
     16 C           0.2527   -2.0741   -1.0824 C.ar    1  LIG1        0.0814
     17 C           2.0181    0.0314   -3.2388 C.ar    1  LIG1       -0.0123
     18 C           1.4191   -1.2979   -0.6492 C.2     1  LIG1        0.1759
     19 C           2.1250    0.6171   -4.4838 C.ar    1  LIG1        0.1665
     20 C           1.8175    1.9360   -4.6934 C.ar    1  LIG1        0.1665
     21 C           1.3953    2.7483   -3.6669 C.ar    1  LIG1       -0.0130
     22 C           0.8132    3.1162   -1.2750 C.3     1  LIG1       -0.0393
     23 C          -1.1811   -3.8573   -1.6128 C.ar    1  LIG1       -0.0273
     24 C           2.4453    1.0760   -6.5711 C.3     1  LIG1        0.2332
     25 C          -1.9981   -2.7813   -1.8622 C.ar    1  LIG1       -0.0217
     26 C           2.4842   -5.3521    1.4494 C.ar    1  LIG1        0.2554
     27 C           1.8175   -6.3597    2.1087 C.ar    1  LIG1        0.1262
     28 C           2.8438   -7.1843    2.6251 C.ar    1  LIG1        0.1009
     29 C           2.7108   -8.4233    3.4255 C.3     1  LIG1       -0.0176
     30 H           2.6043   -3.4764    0.6473 H       1  LIG1        0.1768
     31 H           2.2690    0.5869   -0.1723 H       1  LIG1        0.0394
     32 H           0.5158    0.5933   -0.2731 H       1  LIG1        0.0394
     33 H           2.2935   -1.0137   -3.1328 H       1  LIG1        0.0658
     34 H           1.1675    3.7919   -3.8603 H       1  LIG1        0.0658
     35 H           1.1643    2.7951   -0.2907 H       1  LIG1        0.0278
     36 H          -0.2800    3.1634   -1.2675 H       1  LIG1        0.0278
     37 H           1.2096    4.1266   -1.4263 H       1  LIG1        0.0278
     38 H          -1.4953   -4.8876   -1.7458 H       1  LIG1        0.0643
     39 H           1.7518    0.7888   -7.3699 H       1  LIG1        0.1166
     40 H           3.4370    1.2396   -7.0083 H       1  LIG1        0.1166
     41 H          -3.0227   -2.7965   -2.2100 H       1  LIG1        0.0694
     42 H           3.6762   -8.9207    3.5639 H       1  LIG1        0.0294
     43 H           2.0381   -9.1312    2.9305 H       1  LIG1        0.0294
     44 H           2.3024   -8.1946    4.4153 H       1  LIG1        0.0294
@<TRIPOS>BOND
     1     1    27    1
     2     2    10    1
     3     2    15    1
     4     2     8    2
     5     2     7    2
     6     3    16   ar
     7     3    25   ar
     8     4    24    1
     9     4    19    1
    10     5    20    1
    11     5    24    1
    12     6    18    2
    13     9    11   ar
    14     9    26   ar
    15    10    26    1
    16    11    28   ar
    17    12    17   ar
    18    12    14   ar
    19    13    18    1
    20    13    12    1
    21    14    21   ar
    22    14    22    1
    23    15    23   ar
    24    15    16   ar
    25    16    18    1
    26    17    19   ar
    27    19    20   ar
    28    20    21   ar
    29    23    25   ar
    30    26    27   ar
    31    27    28   ar
    32    28    29    1
    33    10    30    1
    34    13    31    1
    35    13    32    1
    36    17    33    1
    37    21    34    1
    38    22    35    1
    39    22    36    1
    40    22    37    1
    41    23    38    1
    42    24    39    1
    43    24    40    1
    44    25    41    1
    45    29    42    1
    46    29    43    1
    47    29    44    1
@<TRIPOS>MOLECULE
46174111
 44 47 0 0 0
SMALL
GASTEIGER

@<TRIPOS>ATOM
      1 CL         -0.9043   -5.5517    2.1062 Cl      1  LIG1       -0.0762
      2 S           1.3494   -4.6218   -0.6871 S.O2    1  LIG1        0.0758
      3 S          -1.2575   -1.3641   -1.5394 S.2     1  LIG1       -0.0918
      4 O           5.7857    1.8434    0.6786 O.3     1  LIG1       -0.4526
      5 O           4.8161    2.9961    2.5626 O.3     1  LIG1       -0.4526
      6 O           2.3455   -1.8361   -0.0814 O.2     1  LIG1       -0.2911
      7 O           2.4008   -4.2944   -1.6264 O.2     1  LIG1       -0.1499
      8 O           0.6975   -5.9127   -0.7184 O.2     1  LIG1       -0.1499
      9 O           2.9615   -5.8665    2.3655 O.2     1  LIG1       -0.3364
     10 N           1.8886   -4.2562    0.8658 N.pl3   1  LIG1       -0.1821
     11 N           2.5939   -6.8671    3.2508 N.ar    1  LIG1       -0.0798
     12 C           2.2608    0.9871    0.0221 C.ar    1  LIG1       -0.0333
     13 C           1.4221    0.1886   -0.9626 C.3     1  LIG1        0.0366
     14 C           1.6913    1.6467    1.1488 C.ar    1  LIG1       -0.0432
     15 C           0.0861   -3.4888   -1.0821 C.ar    1  LIG1        0.1261
     16 C           0.2135   -2.1051   -1.0451 C.ar    1  LIG1        0.0814
     17 C           3.6561    1.0273   -0.1778 C.ar    1  LIG1       -0.0123
     18 C           1.3775   -1.3089   -0.6370 C.2     1  LIG1        0.1759
     19 C           4.4326    1.7202    0.7240 C.ar    1  LIG1        0.1665
     20 C           3.8815    2.3728    1.7963 C.ar    1  LIG1        0.1665
     21 C           2.5238    2.3631    2.0303 C.ar    1  LIG1       -0.0130
     22 C           0.2094    1.6597    1.4143 C.3     1  LIG1       -0.0393
     23 C          -1.2122   -3.9177   -1.5072 C.ar    1  LIG1       -0.0273
     24 C           6.0243    2.6290    1.8644 C.3     1  LIG1        0.2332
     25 C          -2.0413   -2.8571   -1.7797 C.ar    1  LIG1       -0.0217
     26 C           1.8505   -5.3323    1.7873 C.ar    1  LIG1        0.2554
     27 C           0.7364   -5.9233    2.3400 C.ar    1  LIG1        0.1262
     28 C           1.2538   -6.8896    3.2334 C.ar    1  LIG1        0.1009
     29 C           0.5115   -7.8190    4.1152 C.3     1  LIG1       -0.0176
     30 H           2.7966   -3.7882    0.7780 H       1  LIG1        0.1768
     31 H           0.4287    0.6373   -1.0093 H       1  LIG1        0.0394
     32 H           1.8438    0.2920   -1.9707 H       1  LIG1        0.0394
     33 H           4.1252    0.5098   -1.0090 H       1  LIG1        0.0658
     34 H           2.1201    2.8943    2.8865 H       1  LIG1        0.0658
     35 H          -0.2487    0.6951    1.1784 H       1  LIG1        0.0278
     36 H          -0.2680    2.4454    0.8207 H       1  LIG1        0.0278
     37 H           0.0018    1.8507    2.4730 H       1  LIG1        0.0278
     38 H          -1.5182   -4.9540   -1.6057 H       1  LIG1        0.0643
     39 H           6.5551    3.5438    1.5775 H       1  LIG1        0.1166
     40 H           6.6609    2.0520    2.5454 H       1  LIG1        0.1166
     41 H          -3.0700   -2.8920   -2.1137 H       1  LIG1        0.0694
     42 H           1.1473   -8.6416    4.4579 H       1  LIG1        0.0294
     43 H          -0.3432   -8.2568    3.5895 H       1  LIG1        0.0294
     44 H           0.1378   -7.2864    4.9957 H       1  LIG1        0.0294
@<TRIPOS>BOND
     1     1    27    1
     2     2    10    1
     3     2    15    1
     4     2     8    2
     5     2     7    2
     6     3    16   ar
     7     3    25   ar
     8     4    24    1
     9     4    19    1
    10     5    20    1
    11     5    24    1
    12     6    18    2
    13     9    11   ar
    14     9    26   ar
    15    10    26    1
    16    11    28   ar
    17    12    17   ar
    18    12    14   ar
    19    13    18    1
    20    13    12    1
    21    14    21   ar
    22    14    22    1
    23    15    23   ar
    24    15    16   ar
    25    16    18    1
    26    17    19   ar
    27    19    20   ar
    28    20    21   ar
    29    23    25   ar
    30    26    27   ar
    31    27    28   ar
    32    28    29    1
    33    10    30    1
    34    13    31    1
    35    13    32    1
    36    17    33    1
    37    21    34    1
    38    22    35    1
    39    22    36    1
    40    22    37    1
    41    23    38    1
    42    24    39    1
    43    24    40    1
    44    25    41    1
    45    29    42    1
    46    29    43    1
    47    29    44    1
@<TRIPOS>MOLECULE
46174111
 44 47 0 0 0
SMALL
GASTEIGER

@<TRIPOS>ATOM
      1 CL          4.4200   -5.7827    2.3410 Cl      1  LIG1       -0.0762
      2 S           1.3063   -4.6364   -0.8733 S.O2    1  LIG1        0.0758
      3 S          -1.3364   -1.3314   -1.3141 S.2     1  LIG1       -0.0918
      4 O           5.8059    1.8405    0.6743 O.3     1  LIG1       -0.4526
      5 O           4.8311    3.0062    2.5477 O.3     1  LIG1       -0.4526
      6 O           2.2607   -1.8962    0.0691 O.2     1  LIG1       -0.2911
      7 O           2.3216   -4.1611   -1.7881 O.2     1  LIG1       -0.1499
      8 O           0.6744   -5.9228   -1.0754 O.2     1  LIG1       -0.1499
      9 O           0.6371   -6.3540    1.6836 O.2     1  LIG1       -0.3364
     10 N           1.9062   -4.4946    0.6846 N.pl3   1  LIG1       -0.1821
     11 N           0.8695   -7.4086    2.5494 N.ar    1  LIG1       -0.0798
     12 C           2.2886    0.9411    0.0397 C.ar    1  LIG1       -0.0333
     13 C           1.4492    0.1281   -0.9292 C.3     1  LIG1        0.0366
     14 C           1.7159    1.6135    1.1589 C.ar    1  LIG1       -0.0432
     15 C           0.0175   -3.4867   -1.0796 C.ar    1  LIG1        0.1261
     16 C           0.1523   -2.1103   -0.9508 C.ar    1  LIG1        0.0814
     17 C           3.6824    0.9894   -0.1633 C.ar    1  LIG1       -0.0123
     18 C           1.3356   -1.3497   -0.5379 C.2     1  LIG1        0.1759
     19 C           4.4546    1.7028    0.7266 C.ar    1  LIG1        0.1665
     20 C           3.9003    2.3640    1.7925 C.ar    1  LIG1        0.1665
     21 C           2.5434    2.3456    2.0309 C.ar    1  LIG1       -0.0130
     22 C           0.2333    1.6119    1.4208 C.3     1  LIG1       -0.0393
     23 C          -1.3036   -3.8816   -1.4631 C.ar    1  LIG1       -0.0273
     24 C           6.0400    2.6468    1.8470 C.3     1  LIG1        0.2332
     25 C          -2.1384   -2.8026   -1.6246 C.ar    1  LIG1       -0.0217
     26 C           1.7883   -5.6505    1.4922 C.ar    1  LIG1        0.2554
     27 C           2.7878   -6.2307    2.2367 C.ar    1  LIG1        0.1262
     28 C           2.1715   -7.3428    2.8582 C.ar    1  LIG1        0.1009
     29 C           2.7751   -8.3831    3.7216 C.3     1  LIG1       -0.0176
     30 H           2.7936   -3.9844    0.6867 H       1  LIG1        0.1768
     31 H           0.4760    0.6127   -1.0266 H       1  LIG1        0.0394
     32 H           1.9000    0.1674   -1.9292 H       1  LIG1        0.0394
     33 H           4.1535    0.4675   -0.9906 H       1  LIG1        0.0658
     34 H           2.1374    2.8832    2.8820 H       1  LIG1        0.0658
     35 H          -0.1885    0.6114    1.2896 H       1  LIG1        0.0278
     36 H          -0.2663    2.3120    0.7438 H       1  LIG1        0.0278
     37 H           0.0119    1.9133    2.4504 H       1  LIG1        0.0278
     38 H          -1.6182   -4.9079   -1.6236 H       1  LIG1        0.0643
     39 H           6.5552    3.5652    1.5437 H       1  LIG1        0.1166
     40 H           6.6895    2.0891    2.5321 H       1  LIG1        0.1166
     41 H          -3.1803   -2.8113   -1.9157 H       1  LIG1        0.0694
     42 H           2.0298   -8.8278    4.3893 H       1  LIG1        0.0294
     43 H           3.5747   -7.9705    4.3441 H       1  LIG1        0.0294
     44 H           3.1977   -9.1825    3.1038 H       1  LIG1        0.0294
@<TRIPOS>BOND
     1     1    27    1
     2     2    10    1
     3     2    15    1
     4     2     8    2
     5     2     7    2
     6     3    16   ar
     7     3    25   ar
     8     4    24    1
     9     4    19    1
    10     5    20    1
    11     5    24    1
    12     6    18    2
    13     9    11   ar
    14     9    26   ar
    15    10    26    1
    16    11    28   ar
    17    12    17   ar
    18    12    14   ar
    19    13    18    1
    20    13    12    1
    21    14    21   ar
    22    14    22    1
    23    15    23   ar
    24    15    16   ar
    25    16    18    1
    26    17    19   ar
    27    19    20   ar
    28    20    21   ar
    29    23    25   ar
    30    26    27   ar
    31    27    28   ar
    32    28    29    1
    33    10    30    1
    34    13    31    1
    35    13    32    1
    36    17    33    1
    37    21    34    1
    38    22    35    1
    39    22    36    1
    40    22    37    1
    41    23    38    1
    42    24    39    1
    43    24    40    1
    44    25    41    1
    45    29    42    1
    46    29    43    1
    47    29    44    1
@<TRIPOS>MOLECULE
46174111
 44 47 0 0 0
SMALL
GASTEIGER

@<TRIPOS>ATOM
      1 CL          1.8969   -8.0730   -1.8606 Cl      1  LIG1       -0.0762
      2 S           1.3360   -4.5334   -0.3793 S.O2    1  LIG1        0.0758
      3 S          -1.3937   -1.5623   -1.7395 S.2     1  LIG1       -0.0918
      4 O           5.3078    2.6634   -2.1765 O.3     1  LIG1       -0.4526
      5 O           5.8255    3.0803    0.1424 O.3     1  LIG1       -0.4526
      6 O           2.4031   -1.9513   -1.7442 O.2     1  LIG1       -0.2911
      7 O           0.7125   -5.7824   -0.0025 O.2     1  LIG1       -0.1499
      8 O           1.9941   -3.6939    0.5967 O.2     1  LIG1       -0.1499
      9 O           1.2403   -4.8199   -3.8875 O.2     1  LIG1       -0.3364
     10 N           2.3724   -4.7569   -1.7107 N.pl3   1  LIG1       -0.1821
     11 N           0.5746   -5.7301   -4.6915 N.ar    1  LIG1       -0.0798
     12 C           2.4968    0.7894   -0.7003 C.ar    1  LIG1       -0.0333
     13 C           1.2256    0.0796   -1.1246 C.3     1  LIG1        0.0366
     14 C           2.8297    0.9992    0.6692 C.ar    1  LIG1       -0.0432
     15 C           0.0029   -3.5426   -0.9129 C.ar    1  LIG1        0.1261
     16 C           0.1268   -2.2154   -1.2859 C.ar    1  LIG1        0.0814
     17 C           3.3360    1.3100   -1.7060 C.ar    1  LIG1       -0.0123
     18 C           1.3493   -1.4207   -1.3904 C.2     1  LIG1        0.1759
     19 C           4.4313    2.0582   -1.3309 C.ar    1  LIG1        0.1665
     20 C           4.7276    2.2933   -0.0130 C.ar    1  LIG1        0.1665
     21 C           3.9557    1.7770    1.0040 C.ar    1  LIG1       -0.0130
     22 C           1.9720    0.4810    1.7932 C.3     1  LIG1       -0.0393
     23 C          -1.3400   -4.0206   -1.0199 C.ar    1  LIG1       -0.0273
     24 C           6.1789    3.3241   -1.2347 C.3     1  LIG1        0.2332
     25 C          -2.1993   -3.0416   -1.4624 C.ar    1  LIG1       -0.0217
     26 C           1.7128   -5.4469   -2.7737 C.ar    1  LIG1        0.2554
     27 C           1.4486   -6.7947   -2.8817 C.ar    1  LIG1        0.1262
     28 C           0.7055   -6.9160   -4.0807 C.ar    1  LIG1        0.1009
     29 C           0.1066   -8.1360   -4.6727 C.3     1  LIG1       -0.0176
     30 H           2.6890   -3.8148   -1.9874 H       1  LIG1        0.1768
     31 H           0.4597    0.2557   -0.3607 H       1  LIG1        0.0394
     32 H           0.8499    0.5500   -2.0425 H       1  LIG1        0.0394
     33 H           3.1226    1.1584   -2.7593 H       1  LIG1        0.0658
     34 H           4.2150    1.9846    2.0376 H       1  LIG1        0.0658
     35 H           1.6150   -0.5316    1.5835 H       1  LIG1        0.0278
     36 H           1.1164    1.1463    1.9465 H       1  LIG1        0.0278
     37 H           2.5385    0.4282    2.7297 H       1  LIG1        0.0278
     38 H          -1.6579   -5.0311   -0.7856 H       1  LIG1        0.0643
     39 H           6.1392    4.4040   -1.4207 H       1  LIG1        0.1166
     40 H           7.2050    2.9774   -1.4005 H       1  LIG1        0.1166
     41 H          -3.2641   -3.1250   -1.6376 H       1  LIG1        0.0694
     42 H          -0.4743   -7.9063   -5.5720 H       1  LIG1        0.0294
     43 H          -0.5673   -8.6171   -3.9559 H       1  LIG1        0.0294
     44 H           0.8863   -8.8535   -4.9474 H       1  LIG1        0.0294
@<TRIPOS>BOND
     1     1    27    1
     2     2    10    1
     3     2    15    1
     4     2     8    2
     5     2     7    2
     6     3    16   ar
     7     3    25   ar
     8     4    24    1
     9     4    19    1
    10     5    20    1
    11     5    24    1
    12     6    18    2
    13     9    11   ar
    14     9    26   ar
    15    10    26    1
    16    11    28   ar
    17    12    17   ar
    18    12    14   ar
    19    13    18    1
    20    13    12    1
    21    14    21   ar
    22    14    22    1
    23    15    23   ar
    24    15    16   ar
    25    16    18    1
    26    17    19   ar
    27    19    20   ar
    28    20    21   ar
    29    23    25   ar
    30    26    27   ar
    31    27    28   ar
    32    28    29    1
    33    10    30    1
    34    13    31    1
    35    13    32    1
    36    17    33    1
    37    21    34    1
    38    22    35    1
    39    22    36    1
    40    22    37    1
    41    23    38    1
    42    24    39    1
    43    24    40    1
    44    25    41    1
    45    29    42    1
    46    29    43    1
    47    29    44    1
@<TRIPOS>MOLECULE
46174111
 44 47 0 0 0
SMALL
GASTEIGER

@<TRIPOS>ATOM
      1 CL          3.4523   -8.2491   -1.4871 Cl      1  LIG1       -0.0762
      2 S           1.5417   -4.6183   -0.7020 S.O2    1  LIG1        0.0758
      3 S          -1.1665   -1.4914   -1.6696 S.2     1  LIG1       -0.0918
      4 O           4.7412    3.3725    0.7615 O.3     1  LIG1       -0.4526
      5 O           5.1717    2.3924    2.9235 O.3     1  LIG1       -0.4526
      6 O           2.6432   -1.7549   -1.0796 O.2     1  LIG1       -0.2911
      7 O           1.8272   -4.2296    0.6572 O.2     1  LIG1       -0.1499
      8 O           2.4755   -4.5261   -1.8000 O.2     1  LIG1       -0.1499
      9 O           1.3507   -7.0326    1.5416 O.2     1  LIG1       -0.3364
     10 N           0.9736   -6.2254   -0.7649 N.pl3   1  LIG1       -0.1821
     11 N           2.1841   -7.9265    2.1974 N.ar    1  LIG1       -0.0798
     12 C           2.3096    0.6074    0.5424 C.ar    1  LIG1       -0.0333
     13 C           1.2428    0.0684   -0.3936 C.3     1  LIG1        0.0366
     14 C           2.5556    0.0399    1.8258 C.ar    1  LIG1       -0.0432
     15 C           0.2364   -3.5702   -1.1593 C.ar    1  LIG1        0.1261
     16 C           0.3299   -2.1876   -1.1914 C.ar    1  LIG1        0.0814
     17 C           3.0398    1.7429    0.1344 C.ar    1  LIG1       -0.0123
     18 C           1.4955   -1.3489   -0.9046 C.2     1  LIG1        0.1759
     19 C           3.9755    2.2733    0.9964 C.ar    1  LIG1        0.1665
     20 C           4.2191    1.7184    2.2260 C.ar    1  LIG1        0.1665
     21 C           3.5391    0.6040    2.6623 C.ar    1  LIG1       -0.0130
     22 C           1.8437   -1.1834    2.3412 C.3     1  LIG1       -0.0393
     23 C          -1.0777   -4.0430   -1.4657 C.ar    1  LIG1       -0.0273
     24 C           5.4837    3.4517    1.9963 C.3     1  LIG1        0.2332
     25 C          -1.9380   -3.0104   -1.7604 C.ar    1  LIG1       -0.0217
     26 C           1.6500   -7.0202    0.2137 C.ar    1  LIG1        0.2554
     27 C           2.6807   -7.8988   -0.0194 C.ar    1  LIG1        0.1262
     28 C           2.9963   -8.4236    1.2543 C.ar    1  LIG1        0.1009
     29 C           4.0662   -9.3797    1.6193 C.3     1  LIG1       -0.0176
     30 H           1.2176   -6.5420   -1.7075 H       1  LIG1        0.1768
     31 H           0.2915    0.1266    0.1468 H       1  LIG1        0.0394
     32 H           1.1494    0.7133   -1.2768 H       1  LIG1        0.0394
     33 H           2.8780    2.2081   -0.8326 H       1  LIG1        0.0658
     34 H           3.7602    0.1793    3.6364 H       1  LIG1        0.0658
     35 H           0.9293   -1.4075    1.7887 H       1  LIG1        0.0278
     36 H           1.5455   -1.0333    3.3845 H       1  LIG1        0.0278
     37 H           2.5099   -2.0497    2.2852 H       1  LIG1        0.0278
     38 H          -1.3866   -5.0819   -1.4597 H       1  LIG1        0.0643
     39 H           5.2617    4.4120    2.4765 H       1  LIG1        0.1166
     40 H           6.5544    3.4136    1.7662 H       1  LIG1        0.1166
     41 H          -2.9860   -3.0747   -2.0235 H       1  LIG1        0.0694
     42 H           3.9350   -9.7627    2.6366 H       1  LIG1        0.0294
     43 H           5.0439   -8.8897    1.5653 H       1  LIG1        0.0294
     44 H           4.0716  -10.2361    0.9378 H       1  LIG1        0.0294
@<TRIPOS>BOND
     1     1    27    1
     2     2    10    1
     3     2    15    1
     4     2     8    2
     5     2     7    2
     6     3    16   ar
     7     3    25   ar
     8     4    24    1
     9     4    19    1
    10     5    20    1
    11     5    24    1
    12     6    18    2
    13     9    11   ar
    14     9    26   ar
    15    10    26    1
    16    11    28   ar
    17    12    17   ar
    18    12    14   ar
    19    13    18    1
    20    13    12    1
    21    14    21   ar
    22    14    22    1
    23    15    23   ar
    24    15    16   ar
    25    16    18    1
    26    17    19   ar
    27    19    20   ar
    28    20    21   ar
    29    23    25   ar
    30    26    27   ar
    31    27    28   ar
    32    28    29    1
    33    10    30    1
    34    13    31    1
    35    13    32    1
    36    17    33    1
    37    21    34    1
    38    22    35    1
    39    22    36    1
    40    22    37    1
    41    23    38    1
    42    24    39    1
    43    24    40    1
    44    25    41    1
    45    29    42    1
    46    29    43    1
    47    29    44    1
@<TRIPOS>MOLECULE
46174111
 44 47 0 0 0
SMALL
GASTEIGER

@<TRIPOS>ATOM
      1 CL          0.1590   -6.6293    2.2709 Cl      1  LIG1       -0.0762
      2 S           1.4358   -4.5895   -0.7429 S.O2    1  LIG1        0.0758
      3 S          -1.3466   -1.4764   -1.5674 S.2     1  LIG1       -0.0918
      4 O           5.4656   -0.7102   -4.0017 O.3     1  LIG1       -0.4526
      5 O           5.5664    1.5643   -4.7958 O.3     1  LIG1       -0.4526
      6 O           2.2372   -1.7283   -0.0834 O.2     1  LIG1       -0.2911
      7 O           2.4771   -4.1727   -1.6543 O.2     1  LIG1       -0.1499
      8 O           0.8606   -5.9153   -0.8004 O.2     1  LIG1       -0.1499
      9 O           3.8241   -5.4456    1.7417 O.2     1  LIG1       -0.3364
     10 N           1.9076   -4.2030    0.8374 N.pl3   1  LIG1       -0.1821
     11 N           4.0632   -6.6165    2.4446 N.ar    1  LIG1       -0.0798
     12 C           2.4975    0.5548   -2.2108 C.ar    1  LIG1       -0.0333
     13 C           1.3715    0.1552   -1.2684 C.3     1  LIG1        0.0366
     14 C           2.5738    1.9056   -2.6784 C.ar    1  LIG1       -0.0432
     15 C           0.1077   -3.5324   -1.1342 C.ar    1  LIG1        0.1261
     16 C           0.1806   -2.1458   -1.1486 C.ar    1  LIG1        0.0814
     17 C           3.4693   -0.3704   -2.6414 C.ar    1  LIG1       -0.0123
     18 C           1.3217   -1.2962   -0.7955 C.2     1  LIG1        0.1759
     19 C           4.4606    0.0587   -3.5020 C.ar    1  LIG1        0.1665
     20 C           4.5211    1.3513   -3.9536 C.ar    1  LIG1        0.1665
     21 C           3.5949    2.2915   -3.5685 C.ar    1  LIG1       -0.0130
     22 C           1.5532    2.9553   -2.3148 C.3     1  LIG1       -0.0393
     23 C          -1.1907   -4.0251   -1.4789 C.ar    1  LIG1       -0.0273
     24 C           6.1688    0.2536   -4.8122 C.3     1  LIG1        0.2332
     25 C          -2.0758   -3.0068   -1.7380 C.ar    1  LIG1       -0.0217
     26 C           2.4891   -5.3128    1.5121 C.ar    1  LIG1        0.2554
     27 C           1.8278   -6.3555    2.1210 C.ar    1  LIG1        0.1262
     28 C           2.8566   -7.1556    2.6695 C.ar    1  LIG1        0.1009
     29 C           2.7297   -8.4167    3.4358 C.3     1  LIG1       -0.0176
     30 H           2.5656   -3.4155    0.7380 H       1  LIG1        0.1768
     31 H           1.4560    0.7550   -0.3527 H       1  LIG1        0.0394
     32 H           0.4364    0.4418   -1.7529 H       1  LIG1        0.0394
     33 H           3.4772   -1.4087   -2.3234 H       1  LIG1        0.0658
     34 H           3.6608    3.3055   -3.9504 H       1  LIG1        0.0658
     35 H           1.0545    2.7468   -1.3653 H       1  LIG1        0.0278
     36 H           0.7964    3.0229   -3.1026 H       1  LIG1        0.0278
     37 H           2.0343    3.9332   -2.2025 H       1  LIG1        0.0278
     38 H          -1.4597   -5.0752   -1.5279 H       1  LIG1        0.0643
     39 H           6.1925   -0.1076   -5.8467 H       1  LIG1        0.1166
     40 H           7.1986    0.3373   -4.4456 H       1  LIG1        0.1166
     41 H          -3.1185   -3.0917   -2.0152 H       1  LIG1        0.0694
     42 H           3.7008   -8.9009    3.5806 H       1  LIG1        0.0294
     43 H           2.0797   -9.1241    2.9104 H       1  LIG1        0.0294
     44 H           2.2977   -8.2201    4.4224 H       1  LIG1        0.0294
@<TRIPOS>BOND
     1     1    27    1
     2     2    10    1
     3     2    15    1
     4     2     8    2
     5     2     7    2
     6     3    16   ar
     7     3    25   ar
     8     4    24    1
     9     4    19    1
    10     5    20    1
    11     5    24    1
    12     6    18    2
    13     9    11   ar
    14     9    26   ar
    15    10    26    1
    16    11    28   ar
    17    12    17   ar
    18    12    14   ar
    19    13    18    1
    20    13    12    1
    21    14    21   ar
    22    14    22    1
    23    15    23   ar
    24    15    16   ar
    25    16    18    1
    26    17    19   ar
    27    19    20   ar
    28    20    21   ar
    29    23    25   ar
    30    26    27   ar
    31    27    28   ar
    32    28    29    1
    33    10    30    1
    34    13    31    1
    35    13    32    1
    36    17    33    1
    37    21    34    1
    38    22    35    1
    39    22    36    1
    40    22    37    1
    41    23    38    1
    42    24    39    1
    43    24    40    1
    44    25    41    1
    45    29    42    1
    46    29    43    1
    47    29    44    1
@<TRIPOS>MOLECULE
46174111
 44 47 0 0 0
SMALL
GASTEIGER

@<TRIPOS>ATOM
      1 CL          1.6372   -7.2948    2.3284 Cl      1  LIG1       -0.0762
      2 S           1.5351   -4.7139   -0.7077 S.O2    1  LIG1        0.0758
      3 S          -1.1325   -1.4595   -1.4930 S.2     1  LIG1       -0.0918
      4 O           5.0180    2.4442   -3.3870 O.3     1  LIG1       -0.4526
      5 O           6.3576    2.8329   -1.4203 O.3     1  LIG1       -0.4526
      6 O           1.3294   -0.1517   -0.4384 O.2     1  LIG1       -0.2911
      7 O           2.5566   -4.4613   -1.6976 O.2     1  LIG1       -0.1499
      8 O           0.8412   -5.9838   -0.6561 O.2     1  LIG1       -0.1499
      9 O           4.4728   -4.9344    1.0954 O.2     1  LIG1       -0.3364
     10 N           2.1177   -4.3568    0.8017 N.pl3   1  LIG1       -0.1821
     11 N           5.2363   -5.9693    1.5911 N.ar    1  LIG1       -0.0798
     12 C           3.8955   -0.4689   -1.4354 C.ar    1  LIG1       -0.0333
     13 C           2.8929   -1.6034   -1.5244 C.3     1  LIG1        0.0366
     14 C           4.6788   -0.2370   -0.2685 C.ar    1  LIG1       -0.0432
     15 C           0.2918   -3.5613   -1.1044 C.ar    1  LIG1        0.1261
     16 C           0.4076   -2.1812   -1.1696 C.ar    1  LIG1        0.0814
     17 C           3.9886    0.4103   -2.5320 C.ar    1  LIG1       -0.0123
     18 C           1.5175   -1.2297   -0.9888 C.2     1  LIG1        0.1759
     19 C           4.8397    1.4869   -2.4370 C.ar    1  LIG1        0.1665
     20 C           5.6015    1.7083   -1.3178 C.ar    1  LIG1        0.1665
     21 C           5.5525    0.8658   -0.2300 C.ar    1  LIG1       -0.0130
     22 C           4.6076   -1.0871    0.9702 C.3     1  LIG1       -0.0393
     23 C          -1.0474   -4.0037   -1.3815 C.ar    1  LIG1       -0.0273
     24 C           5.9312    3.3284   -2.7020 C.3     1  LIG1        0.2332
     25 C          -1.9165   -2.9637   -1.6024 C.ar    1  LIG1       -0.0217
     26 C           3.1474   -5.2255    1.2513 C.ar    1  LIG1        0.2554
     27 C           3.0320   -6.4509    1.8689 C.ar    1  LIG1        0.1262
     28 C           4.3679   -6.8829    2.0468 C.ar    1  LIG1        0.1009
     29 C           4.8644   -8.1460    2.6440 C.3     1  LIG1       -0.0176
     30 H           1.6901   -3.6788    1.4371 H       1  LIG1        0.1768
     31 H           2.7996   -1.9263   -2.5696 H       1  LIG1        0.0394
     32 H           3.2956   -2.4363   -0.9592 H       1  LIG1        0.0394
     33 H           3.3892    0.2718   -3.4267 H       1  LIG1        0.0658
     34 H           6.1608    1.0731    0.6439 H       1  LIG1        0.0658
     35 H           3.9106   -1.9243    0.8938 H       1  LIG1        0.0278
     36 H           4.2736   -0.4788    1.8191 H       1  LIG1        0.0278
     37 H           5.5950   -1.5074    1.1968 H       1  LIG1        0.0278
     38 H          -1.3630   -5.0432   -1.4028 H       1  LIG1        0.0643
     39 H           5.4322    4.2956   -2.5548 H       1  LIG1        0.1166
     40 H           6.8117    3.4784   -3.3329 H       1  LIG1        0.1166
     41 H          -2.9753   -3.0176   -1.8169 H       1  LIG1        0.0694
     42 H           5.9591   -8.1870    2.6468 H       1  LIG1        0.0294
     43 H           4.5001   -9.0088    2.0755 H       1  LIG1        0.0294
     44 H           4.5235   -8.2432    3.6781 H       1  LIG1        0.0294
@<TRIPOS>BOND
     1     1    27    1
     2     2    10    1
     3     2    15    1
     4     2     8    2
     5     2     7    2
     6     3    16   ar
     7     3    25   ar
     8     4    24    1
     9     4    19    1
    10     5    20    1
    11     5    24    1
    12     6    18    2
    13     9    11   ar
    14     9    26   ar
    15    10    26    1
    16    11    28   ar
    17    12    17   ar
    18    12    14   ar
    19    13    18    1
    20    13    12    1
    21    14    21   ar
    22    14    22    1
    23    15    23   ar
    24    15    16   ar
    25    16    18    1
    26    17    19   ar
    27    19    20   ar
    28    20    21   ar
    29    23    25   ar
    30    26    27   ar
    31    27    28   ar
    32    28    29    1
    33    10    30    1
    34    13    31    1
    35    13    32    1
    36    17    33    1
    37    21    34    1
    38    22    35    1
    39    22    36    1
    40    22    37    1
    41    23    38    1
    42    24    39    1
    43    24    40    1
    44    25    41    1
    45    29    42    1
    46    29    43    1
    47    29    44    1
@<TRIPOS>MOLECULE
46174111
 44 47 0 0 0
SMALL
GASTEIGER

@<TRIPOS>ATOM
      1 CL          1.7733   -6.5686   -3.9479 Cl      1  LIG1       -0.0762
      2 S           1.4676   -4.6091   -0.7023 S.O2    1  LIG1        0.0758
      3 S          -1.2632   -1.4614   -1.6286 S.2     1  LIG1       -0.0918
      4 O           6.1458    1.4691   -1.7166 O.3     1  LIG1       -0.4526
      5 O           5.9369    3.2052   -0.0550 O.3     1  LIG1       -0.4526
      6 O           2.5353   -1.7977   -0.7317 O.2     1  LIG1       -0.2911
      7 O           0.9493   -5.9143   -1.0471 O.2     1  LIG1       -0.1499
      8 O           1.7890   -4.2705    0.6652 O.2     1  LIG1       -0.1499
      9 O           2.6365   -2.7923   -3.6145 O.2     1  LIG1       -0.3364
     10 N           2.8122   -4.2532   -1.6733 N.pl3   1  LIG1       -0.1821
     11 N           2.1736   -2.8106   -4.9140 N.ar    1  LIG1       -0.0798
     12 C           2.5533    1.0335   -0.9973 C.ar    1  LIG1       -0.0333
     13 C           1.3690    0.1870   -1.4378 C.3     1  LIG1        0.0366
     14 C           2.4365    2.0534   -0.0090 C.ar    1  LIG1       -0.0432
     15 C           0.1552   -3.5179   -1.0794 C.ar    1  LIG1        0.1261
     16 C           0.2623   -2.1378   -1.2105 C.ar    1  LIG1        0.0814
     17 C           3.8029    0.8058   -1.6126 C.ar    1  LIG1       -0.0123
     18 C           1.4577   -1.2967   -1.0617 C.2     1  LIG1        0.1759
     19 C           4.8810    1.5734   -1.2294 C.ar    1  LIG1        0.1665
     20 C           4.7632    2.5578   -0.2828 C.ar    1  LIG1        0.1665
     21 C           3.5623    2.8263    0.3359 C.ar    1  LIG1       -0.0130
     22 C           1.1280    2.3768    0.6617 C.3     1  LIG1       -0.0393
     23 C          -1.1791   -3.9926   -1.2912 C.ar    1  LIG1       -0.0273
     24 C           6.8150    2.4920   -0.9504 C.3     1  LIG1        0.2332
     25 C          -2.0476   -2.9726   -1.5972 C.ar    1  LIG1       -0.0217
     26 C           2.4914   -4.0251   -3.0468 C.ar    1  LIG1        0.2554
     27 C           2.0313   -4.8952   -4.0107 C.ar    1  LIG1        0.1262
     28 C           1.8252   -4.0810   -5.1531 C.ar    1  LIG1        0.1009
     29 C           1.3063   -4.4717   -6.4844 C.3     1  LIG1       -0.0176
     30 H           3.2381   -3.4105   -1.2554 H       1  LIG1        0.1768
     31 H           0.4502    0.6116   -1.0284 H       1  LIG1        0.0394
     32 H           1.2904    0.2530   -2.5309 H       1  LIG1        0.0394
     33 H           3.9328    0.0355   -2.3676 H       1  LIG1        0.0658
     34 H           3.5027    3.6203    1.0740 H       1  LIG1        0.0658
     35 H           0.6511    1.4685    1.0447 H       1  LIG1        0.0278
     36 H           0.4581    2.8759   -0.0460 H       1  LIG1        0.0278
     37 H           1.2705    3.0442    1.5190 H       1  LIG1        0.0278
     38 H          -1.4814   -5.0327   -1.2264 H       1  LIG1        0.0643
     39 H           7.2662    3.2103   -1.6446 H       1  LIG1        0.1166
     40 H           7.6125    2.0249   -0.3607 H       1  LIG1        0.1166
     41 H          -3.1072   -3.0467   -1.8061 H       1  LIG1        0.0694
     42 H           1.1700   -3.6011   -7.1351 H       1  LIG1        0.0294
     43 H           0.3357   -4.9690   -6.3870 H       1  LIG1        0.0294
     44 H           1.9999   -5.1584   -6.9797 H       1  LIG1        0.0294
@<TRIPOS>BOND
     1     1    27    1
     2     2    10    1
     3     2    15    1
     4     2     8    2
     5     2     7    2
     6     3    16   ar
     7     3    25   ar
     8     4    24    1
     9     4    19    1
    10     5    20    1
    11     5    24    1
    12     6    18    2
    13     9    11   ar
    14     9    26   ar
    15    10    26    1
    16    11    28   ar
    17    12    17   ar
    18    12    14   ar
    19    13    18    1
    20    13    12    1
    21    14    21   ar
    22    14    22    1
    23    15    23   ar
    24    15    16   ar
    25    16    18    1
    26    17    19   ar
    27    19    20   ar
    28    20    21   ar
    29    23    25   ar
    30    26    27   ar
    31    27    28   ar
    32    28    29    1
    33    10    30    1
    34    13    31    1
    35    13    32    1
    36    17    33    1
    37    21    34    1
    38    22    35    1
    39    22    36    1
    40    22    37    1
    41    23    38    1
    42    24    39    1
    43    24    40    1
    44    25    41    1
    45    29    42    1
    46    29    43    1
    47    29    44    1
@<TRIPOS>MOLECULE
46174111
 44 47 0 0 0
SMALL
GASTEIGER

@<TRIPOS>ATOM
      1 CL          3.4214   -1.6848    2.2165 Cl      1  LIG1       -0.0762
      2 S           1.7457   -4.6467   -0.9414 S.O2    1  LIG1        0.0758
      3 S          -1.2570   -1.5876   -1.1430 S.2     1  LIG1       -0.0918
      4 O           4.6763    3.3933    0.4099 O.3     1  LIG1       -0.4526
      5 O           5.8981    3.3813   -1.6699 O.3     1  LIG1       -0.4526
      6 O           2.6467   -1.6906   -1.0866 O.2     1  LIG1       -0.2911
      7 O           2.1100   -4.6898   -2.3430 O.2     1  LIG1       -0.1499
      8 O           1.2467   -5.8198   -0.2571 O.2     1  LIG1       -0.1499
      9 O           3.1283   -5.5330    1.7959 O.2     1  LIG1       -0.3364
     10 N           3.0050   -3.9526   -0.0942 N.pl3   1  LIG1       -0.1821
     11 N           3.3914   -5.4797    3.1557 N.ar    1  LIG1       -0.0798
     12 C           2.4841    1.0738   -1.4375 C.ar    1  LIG1       -0.0333
     13 C           1.2296    0.2386   -1.2382 C.3     1  LIG1        0.0366
     14 C           3.2006    1.0787   -2.6694 C.ar    1  LIG1       -0.0432
     15 C           0.3529   -3.5780   -0.9712 C.ar    1  LIG1        0.1261
     16 C           0.3564   -2.1907   -1.0774 C.ar    1  LIG1        0.0814
     17 C           2.9501    1.8526   -0.3583 C.ar    1  LIG1       -0.0123
     18 C           1.4926   -1.2658   -1.1454 C.2     1  LIG1        0.1759
     19 C           4.0981    2.5967   -0.5285 C.ar    1  LIG1        0.1665
     20 C           4.7924    2.5914   -1.7108 C.ar    1  LIG1        0.1665
     21 C           4.3767    1.8437   -2.7899 C.ar    1  LIG1       -0.0130
     22 C           2.7993    0.2238   -3.8431 C.3     1  LIG1       -0.0393
     23 C          -0.9774   -4.1194   -0.9993 C.ar    1  LIG1       -0.0273
     24 C           5.8188    3.8867   -0.3215 C.3     1  LIG1        0.2332
     25 C          -1.9401   -3.1446   -1.1000 C.ar    1  LIG1       -0.0217
     26 C           3.1379   -4.2748    1.2753 C.ar    1  LIG1        0.2554
     27 C           3.3765   -3.3793    2.2916 C.ar    1  LIG1        0.1262
     28 C           3.5343   -4.1796    3.4462 C.ar    1  LIG1        0.1009
     29 C           3.7967   -3.7645    4.8428 C.3     1  LIG1       -0.0176
     30 H           3.1880   -2.9806   -0.3747 H       1  LIG1        0.1768
     31 H           0.7354    0.5473   -0.3081 H       1  LIG1        0.0394
     32 H           0.5406    0.4585   -2.0601 H       1  LIG1        0.0394
     33 H           2.4358    1.8744    0.5970 H       1  LIG1        0.0658
     34 H           4.9580    1.8470   -3.7067 H       1  LIG1        0.0658
     35 H           1.7146    0.1116   -3.9156 H       1  LIG1        0.0278
     36 H           3.2576   -0.7662   -3.7569 H       1  LIG1        0.0278
     37 H           3.1274    0.6785   -4.7843 H       1  LIG1        0.0278
     38 H          -1.2081   -5.1792   -0.9665 H       1  LIG1        0.0643
     39 H           6.7303    3.5990    0.2152 H       1  LIG1        0.1166
     40 H           5.7647    4.9808   -0.3603 H       1  LIG1        0.1166
     41 H          -3.0132   -3.2770   -1.1552 H       1  LIG1        0.0694
     42 H           4.4677   -4.4704    5.3436 H       1  LIG1        0.0294
     43 H           2.8584   -3.7237    5.4050 H       1  LIG1        0.0294
     44 H           4.2653   -2.7767    4.8877 H       1  LIG1        0.0294
@<TRIPOS>BOND
     1     1    27    1
     2     2    10    1
     3     2    15    1
     4     2     8    2
     5     2     7    2
     6     3    16   ar
     7     3    25   ar
     8     4    24    1
     9     4    19    1
    10     5    20    1
    11     5    24    1
    12     6    18    2
    13     9    11   ar
    14     9    26   ar
    15    10    26    1
    16    11    28   ar
    17    12    17   ar
    18    12    14   ar
    19    13    18    1
    20    13    12    1
    21    14    21   ar
    22    14    22    1
    23    15    23   ar
    24    15    16   ar
    25    16    18    1
    26    17    19   ar
    27    19    20   ar
    28    20    21   ar
    29    23    25   ar
    30    26    27   ar
    31    27    28   ar
    32    28    29    1
    33    10    30    1
    34    13    31    1
    35    13    32    1
    36    17    33    1
    37    21    34    1
    38    22    35    1
    39    22    36    1
    40    22    37    1
    41    23    38    1
    42    24    39    1
    43    24    40    1
    44    25    41    1
    45    29    42    1
    46    29    43    1
    47    29    44    1
@<TRIPOS>MOLECULE
46174111
 44 47 0 0 0
SMALL
GASTEIGER

@<TRIPOS>ATOM
      1 CL          1.6216   -7.2466    2.1620 Cl      1  LIG1       -0.0762
      2 S           1.5161   -4.7019   -0.7687 S.O2    1  LIG1        0.0758
      3 S          -1.2029   -1.4924   -1.4739 S.2     1  LIG1       -0.0918
      4 O           0.4478    1.2595    3.5379 O.3     1  LIG1       -0.4526
      5 O           1.2083    3.5333    3.2825 O.3     1  LIG1       -0.4526
      6 O           2.4709   -1.8872   -0.2312 O.2     1  LIG1       -0.2911
      7 O           2.4567   -4.3958   -1.8231 O.2     1  LIG1       -0.1499
      8 O           0.8697   -5.9926   -0.6711 O.2     1  LIG1       -0.1499
      9 O           4.5292   -4.9023    1.0816 O.2     1  LIG1       -0.3364
     10 N           2.1914   -4.2719    0.7260 N.pl3   1  LIG1       -0.1821
     11 N           5.2642   -5.9634    1.5796 N.ar    1  LIG1       -0.0798
     12 C           1.4359    1.0418   -0.0089 C.ar    1  LIG1       -0.0333
     13 C           1.5288    0.0790   -1.1830 C.3     1  LIG1        0.0366
     14 C           1.8457    2.4004   -0.1650 C.ar    1  LIG1       -0.0432
     15 C           0.2008   -3.5978   -1.0862 C.ar    1  LIG1        0.1261
     16 C           0.3135   -2.2124   -1.1068 C.ar    1  LIG1        0.0814
     17 C           0.9232    0.6219    1.2356 C.ar    1  LIG1       -0.0123
     18 C           1.4956   -1.3997   -0.8161 C.2     1  LIG1        0.1759
     19 C           0.8858    1.5239    2.2780 C.ar    1  LIG1        0.1665
     20 C           1.3156    2.8166    2.1326 C.ar    1  LIG1        0.1665
     21 C           1.7957    3.2843    0.9305 C.ar    1  LIG1       -0.0130
     22 C           2.3985    2.9211   -1.4667 C.3     1  LIG1       -0.0393
     23 C          -1.1220   -4.0469   -1.3987 C.ar    1  LIG1       -0.0273
     24 C           0.6848    2.5309    4.1777 C.3     1  LIG1        0.2332
     25 C          -1.9820   -3.0002   -1.6307 C.ar    1  LIG1       -0.0217
     26 C           3.1998   -5.1948    1.1347 C.ar    1  LIG1        0.2554
     27 C           3.0414   -6.4280    1.7242 C.ar    1  LIG1        0.1262
     28 C           4.3627   -6.8743    1.9694 C.ar    1  LIG1        0.1009
     29 C           4.8065   -8.1414    2.5941 C.3     1  LIG1       -0.0176
     30 H           2.6312   -3.3493    0.5695 H       1  LIG1        0.1768
     31 H           0.7671    0.3320   -1.9250 H       1  LIG1        0.0394
     32 H           2.4967    0.2212   -1.6824 H       1  LIG1        0.0394
     33 H           0.5746   -0.3886    1.4181 H       1  LIG1        0.0658
     34 H           2.1297    4.3139    0.8453 H       1  LIG1        0.0658
     35 H           1.8278    2.5399   -2.3195 H       1  LIG1        0.0278
     36 H           3.4481    2.6289   -1.5704 H       1  LIG1        0.0278
     37 H           2.3375    4.0140   -1.5127 H       1  LIG1        0.0278
     38 H          -1.4235   -5.0880   -1.4503 H       1  LIG1        0.0643
     39 H           1.3988    2.3832    4.9961 H       1  LIG1        0.1166
     40 H          -0.2606    2.8937    4.5968 H       1  LIG1        0.1166
     41 H          -3.0329   -3.0514   -1.8840 H       1  LIG1        0.0694
     42 H           5.8984   -8.2190    2.6171 H       1  LIG1        0.0294
     43 H           4.4206   -8.9998    2.0355 H       1  LIG1        0.0294
     44 H           4.4431   -8.2069    3.6247 H       1  LIG1        0.0294
@<TRIPOS>BOND
     1     1    27    1
     2     2    10    1
     3     2    15    1
     4     2     8    2
     5     2     7    2
     6     3    16   ar
     7     3    25   ar
     8     4    24    1
     9     4    19    1
    10     5    20    1
    11     5    24    1
    12     6    18    2
    13     9    11   ar
    14     9    26   ar
    15    10    26    1
    16    11    28   ar
    17    12    17   ar
    18    12    14   ar
    19    13    18    1
    20    13    12    1
    21    14    21   ar
    22    14    22    1
    23    15    23   ar
    24    15    16   ar
    25    16    18    1
    26    17    19   ar
    27    19    20   ar
    28    20    21   ar
    29    23    25   ar
    30    26    27   ar
    31    27    28   ar
    32    28    29    1
    33    10    30    1
    34    13    31    1
    35    13    32    1
    36    17    33    1
    37    21    34    1
    38    22    35    1
    39    22    36    1
    40    22    37    1
    41    23    38    1
    42    24    39    1
    43    24    40    1
    44    25    41    1
    45    29    42    1
    46    29    43    1
    47    29    44    1
@<TRIPOS>MOLECULE
46174111
 44 47 0 0 0
SMALL
GASTEIGER

@<TRIPOS>ATOM
      1 CL          4.8559   -6.9297   -2.4565 Cl      1  LIG1       -0.0762
      2 S           1.3359   -4.5962   -0.4609 S.O2    1  LIG1        0.0758
      3 S          -1.0705   -1.3757   -1.8649 S.2     1  LIG1       -0.0918
      4 O           0.5763    0.9432    3.3913 O.3     1  LIG1       -0.4526
      5 O           1.1988    3.2702    3.2726 O.3     1  LIG1       -0.4526
      6 O           2.7149   -1.9217   -0.9969 O.2     1  LIG1       -0.2911
      7 O           0.6525   -5.8738   -0.4407 O.2     1  LIG1       -0.1499
      8 O           1.7687   -3.9871    0.7764 O.2     1  LIG1       -0.1499
      9 O           1.3444   -5.5643   -3.3925 O.2     1  LIG1       -0.3364
     10 N           2.6589   -4.7191   -1.4822 N.pl3   1  LIG1       -0.1821
     11 N           1.4771   -6.5216   -4.3843 N.ar    1  LIG1       -0.0798
     12 C           1.5292    1.0044   -0.1725 C.ar    1  LIG1       -0.0333
     13 C           1.6405    0.1468   -1.4234 C.3     1  LIG1        0.0366
     14 C           1.8636    2.3939   -0.2401 C.ar    1  LIG1       -0.0432
     15 C           0.1653   -3.4777   -1.0934 C.ar    1  LIG1        0.1261
     16 C           0.3886   -2.1297   -1.3485 C.ar    1  LIG1        0.0814
     17 C           1.0704    0.4730    1.0488 C.ar    1  LIG1       -0.0123
     18 C           1.6376   -1.3676   -1.2313 C.2     1  LIG1        0.1759
     19 C           0.9900    1.3069    2.1470 C.ar    1  LIG1        0.1665
     20 C           1.3391    2.6309    2.0810 C.ar    1  LIG1        0.1665
     21 C           1.7794    3.2017    0.9101 C.ar    1  LIG1       -0.0130
     22 C           2.3698    3.0306   -1.5095 C.3     1  LIG1       -0.0393
     23 C          -1.1869   -3.8740   -1.3557 C.ar    1  LIG1       -0.0273
     24 C           0.7324    2.1877    4.1043 C.3     1  LIG1        0.2332
     25 C          -1.9618   -2.8235   -1.7824 C.ar    1  LIG1       -0.0217
     26 C           2.4587   -5.5561   -2.6093 C.ar    1  LIG1        0.2554
     27 C           3.3400   -6.4984   -3.0825 C.ar    1  LIG1        0.1262
     28 C           2.6684   -7.0981   -4.1736 C.ar    1  LIG1        0.1009
     29 C           3.0949   -8.2404   -5.0147 C.3     1  LIG1       -0.0176
     30 H           3.5326   -4.8212   -0.9684 H       1  LIG1        0.1768
     31 H           0.8811    0.4565   -2.1466 H       1  LIG1        0.0394
     32 H           2.6045    0.3655   -1.9035 H       1  LIG1        0.0394
     33 H           0.7905   -0.5684    1.1697 H       1  LIG1        0.0658
     34 H           2.0527    4.2520    0.8891 H       1  LIG1        0.0658
     35 H           1.7880    2.7017   -2.3758 H       1  LIG1        0.0278
     36 H           3.4241    2.7772   -1.6593 H       1  LIG1        0.0278
     37 H           2.2813    4.1217   -1.4684 H       1  LIG1        0.0278
     38 H          -1.5714   -4.8796   -1.2227 H       1  LIG1        0.0643
     39 H           1.4496    2.0381    4.9199 H       1  LIG1        0.1166
     40 H          -0.2350    2.4701    4.5352 H       1  LIG1        0.1166
     41 H          -3.0128   -2.8403   -2.0399 H       1  LIG1        0.0694
     42 H           2.6681   -8.1751   -6.0208 H       1  LIG1        0.0294
     43 H           2.7614   -9.1809   -4.5633 H       1  LIG1        0.0294
     44 H           4.1836   -8.2778   -5.1171 H       1  LIG1        0.0294
@<TRIPOS>BOND
     1     1    27    1
     2     2    10    1
     3     2    15    1
     4     2     8    2
     5     2     7    2
     6     3    16   ar
     7     3    25   ar
     8     4    24    1
     9     4    19    1
    10     5    20    1
    11     5    24    1
    12     6    18    2
    13     9    11   ar
    14     9    26   ar
    15    10    26    1
    16    11    28   ar
    17    12    17   ar
    18    12    14   ar
    19    13    18    1
    20    13    12    1
    21    14    21   ar
    22    14    22    1
    23    15    23   ar
    24    15    16   ar
    25    16    18    1
    26    17    19   ar
    27    19    20   ar
    28    20    21   ar
    29    23    25   ar
    30    26    27   ar
    31    27    28   ar
    32    28    29    1
    33    10    30    1
    34    13    31    1
    35    13    32    1
    36    17    33    1
    37    21    34    1
    38    22    35    1
    39    22    36    1
    40    22    37    1
    41    23    38    1
    42    24    39    1
    43    24    40    1
    44    25    41    1
    45    29    42    1
    46    29    43    1
    47    29    44    1
@<TRIPOS>MOLECULE
46174111
 44 47 0 0 0
SMALL
GASTEIGER

@<TRIPOS>ATOM
      1 CL         -1.1249   -3.8265    1.9261 Cl      1  LIG1       -0.0762
      2 S           1.2672   -4.7082   -0.7762 S.O2    1  LIG1        0.0758
      3 S          -1.1764   -1.3227   -1.6164 S.2     1  LIG1       -0.0918
      4 O           5.4676    0.7283    2.1547 O.3     1  LIG1       -0.4526
      5 O           6.1479    2.6952    0.9359 O.3     1  LIG1       -0.4526
      6 O           2.5706   -1.9374   -0.6861 O.2     1  LIG1       -0.2911
      7 O           2.2784   -4.6235   -1.8053 O.2     1  LIG1       -0.1499
      8 O           0.4867   -5.9168   -0.6054 O.2     1  LIG1       -0.1499
      9 O           2.1517   -5.8012    2.6126 O.2     1  LIG1       -0.3364
     10 N           1.9707   -4.2858    0.7010 N.pl3   1  LIG1       -0.1821
     11 N           1.3581   -6.3078    3.6278 N.ar    1  LIG1       -0.0798
     12 C           2.6057    0.8780   -0.1711 C.ar    1  LIG1       -0.0333
     13 C           1.3283    0.1239   -0.5152 C.3     1  LIG1        0.0366
     14 C           2.9870    2.0718   -0.8536 C.ar    1  LIG1       -0.0432
     15 C           0.0943   -3.5083   -1.2289 C.ar    1  LIG1        0.1261
     16 C           0.2748   -2.1336   -1.1638 C.ar    1  LIG1        0.0814
     17 C           3.4075    0.4089    0.8911 C.ar    1  LIG1       -0.0123
     18 C           1.4788   -1.3798   -0.7916 C.2     1  LIG1        0.1759
     19 C           4.5756    1.0767    1.1892 C.ar    1  LIG1        0.1665
     20 C           4.9614    2.1958    0.4991 C.ar    1  LIG1        0.1665
     21 C           4.1923    2.7186   -0.5158 C.ar    1  LIG1       -0.0130
     22 C           2.1668    2.6655   -1.9693 C.3     1  LIG1       -0.0393
     23 C          -1.2091   -3.8738   -1.7012 C.ar    1  LIG1       -0.0273
     24 C           6.4846    1.7318    1.9555 C.3     1  LIG1        0.2332
     25 C          -2.0004   -2.7770   -1.9402 C.ar    1  LIG1       -0.0217
     26 C           1.4219   -4.9553    1.8315 C.ar    1  LIG1        0.2554
     27 C           0.1617   -4.8367    2.3741 C.ar    1  LIG1        0.1262
     28 C           0.1614   -5.7260    3.4746 C.ar    1  LIG1        0.1009
     29 C          -0.9419   -6.0235    4.4174 C.3     1  LIG1       -0.0176
     30 H           2.9815   -4.4005    0.6082 H       1  LIG1        0.1768
     31 H           0.6299    0.2581    0.3200 H       1  LIG1        0.0394
     32 H           0.8823    0.5628   -1.4104 H       1  LIG1        0.0394
     33 H           3.1431   -0.4800    1.4556 H       1  LIG1        0.0658
     34 H           4.5232    3.6113   -1.0372 H       1  LIG1        0.0658
     35 H           1.1062    2.7017   -1.7021 H       1  LIG1        0.0278
     36 H           2.2997    2.0817   -2.8851 H       1  LIG1        0.0278
     37 H           2.4661    3.6993   -2.1753 H       1  LIG1        0.0278
     38 H          -1.5516   -4.8948   -1.8336 H       1  LIG1        0.0643
     39 H           7.4190    1.2331    1.6717 H       1  LIG1        0.1166
     40 H           6.6431    2.2633    2.9005 H       1  LIG1        0.1166
     41 H          -3.0262   -2.7648   -2.2842 H       1  LIG1        0.0694
     42 H          -0.7578   -6.9487    4.9727 H       1  LIG1        0.0294
     43 H          -1.8895   -6.1426    3.8816 H       1  LIG1        0.0294
     44 H          -1.0553   -5.2078    5.1384 H       1  LIG1        0.0294
@<TRIPOS>BOND
     1     1    27    1
     2     2    10    1
     3     2    15    1
     4     2     8    2
     5     2     7    2
     6     3    16   ar
     7     3    25   ar
     8     4    24    1
     9     4    19    1
    10     5    20    1
    11     5    24    1
    12     6    18    2
    13     9    11   ar
    14     9    26   ar
    15    10    26    1
    16    11    28   ar
    17    12    17   ar
    18    12    14   ar
    19    13    18    1
    20    13    12    1
    21    14    21   ar
    22    14    22    1
    23    15    23   ar
    24    15    16   ar
    25    16    18    1
    26    17    19   ar
    27    19    20   ar
    28    20    21   ar
    29    23    25   ar
    30    26    27   ar
    31    27    28   ar
    32    28    29    1
    33    10    30    1
    34    13    31    1
    35    13    32    1
    36    17    33    1
    37    21    34    1
    38    22    35    1
    39    22    36    1
    40    22    37    1
    41    23    38    1
    42    24    39    1
    43    24    40    1
    44    25    41    1
    45    29    42    1
    46    29    43    1
    47    29    44    1
@<TRIPOS>MOLECULE
46174111
 44 47 0 0 0
SMALL
GASTEIGER

@<TRIPOS>ATOM
      1 CL         -1.2294   -3.8788    1.9496 Cl      1  LIG1       -0.0762
      2 S           1.3176   -4.5967   -0.6823 S.O2    1  LIG1        0.0758
      3 S          -1.1958   -1.3106   -1.7055 S.2     1  LIG1       -0.0918
      4 O           5.7827    1.9104    0.6596 O.3     1  LIG1       -0.4526
      5 O           4.8143    2.9962    2.5836 O.3     1  LIG1       -0.4526
      6 O           2.4009   -1.7962   -0.2252 O.2     1  LIG1       -0.2911
      7 O           2.3798   -4.3902   -1.6445 O.2     1  LIG1       -0.1499
      8 O           0.6060   -5.8560   -0.6317 O.2     1  LIG1       -0.1499
      9 O           2.0467   -5.8325    2.6949 O.2     1  LIG1       -0.3364
     10 N           1.9172   -4.2371    0.8490 N.pl3   1  LIG1       -0.1821
     11 N           1.2256   -6.3794    3.6663 N.ar    1  LIG1       -0.0798
     12 C           2.2648    1.0241    0.0102 C.ar    1  LIG1       -0.0333
     13 C           1.4237    0.2477   -0.9895 C.3     1  LIG1        0.0366
     14 C           1.6960    1.6470    1.1582 C.ar    1  LIG1       -0.0432
     15 C           0.1057   -3.4411   -1.1550 C.ar    1  LIG1        0.1261
     16 C           0.2494   -2.0590   -1.1438 C.ar    1  LIG1        0.0814
     17 C           3.6571    1.0880   -0.2006 C.ar    1  LIG1       -0.0123
     18 C           1.4100   -1.2629   -0.7285 C.2     1  LIG1        0.1759
     19 C           4.4318    1.7668    0.7133 C.ar    1  LIG1        0.1665
     20 C           3.8812    2.3820    1.8081 C.ar    1  LIG1        0.1665
     21 C           2.5259    2.3478    2.0537 C.ar    1  LIG1       -0.0130
     22 C           0.2157    1.6219    1.4316 C.3     1  LIG1       -0.0393
     23 C          -1.1755   -3.8602   -1.6452 C.ar    1  LIG1       -0.0273
     24 C           6.0210    2.6647    1.8654 C.3     1  LIG1        0.2332
     25 C          -1.9834   -2.7968   -1.9628 C.ar    1  LIG1       -0.0217
     26 C           1.3340   -4.9695    1.9171 C.ar    1  LIG1        0.2554
     27 C           0.0523   -4.8878    2.4132 C.ar    1  LIG1        0.1262
     28 C           0.0297   -5.8015    3.4935 C.ar    1  LIG1        0.1009
     29 C          -1.0923   -6.1200    4.4063 C.3     1  LIG1       -0.0176
     30 H           2.9356   -4.2988    0.8140 H       1  LIG1        0.1768
     31 H           0.4207    0.6769   -0.9947 H       1  LIG1        0.0394
     32 H           1.8221    0.4027   -2.0004 H       1  LIG1        0.0394
     33 H           4.1250    0.5989   -1.0495 H       1  LIG1        0.0658
     34 H           2.1234    2.8484    2.9286 H       1  LIG1        0.0658
     35 H          -0.1922    0.6165    1.2893 H       1  LIG1        0.0278
     36 H          -0.2990    2.3240    0.7681 H       1  LIG1        0.0278
     37 H          -0.0030    1.9075    2.4663 H       1  LIG1        0.0278
     38 H          -1.4882   -4.8946   -1.7462 H       1  LIG1        0.0643
     39 H           6.5379    3.5940    1.6005 H       1  LIG1        0.1166
     40 H           6.6706    2.0767    2.5244 H       1  LIG1        0.1166
     41 H          -2.9975   -2.8268   -2.3396 H       1  LIG1        0.0694
     42 H          -0.9151   -7.0527    4.9513 H       1  LIG1        0.0294
     43 H          -2.0278   -6.2334    3.8490 H       1  LIG1        0.0294
     44 H          -1.2232   -5.3161    5.1380 H       1  LIG1        0.0294
@<TRIPOS>BOND
     1     1    27    1
     2     2    10    1
     3     2    15    1
     4     2     8    2
     5     2     7    2
     6     3    16   ar
     7     3    25   ar
     8     4    24    1
     9     4    19    1
    10     5    20    1
    11     5    24    1
    12     6    18    2
    13     9    11   ar
    14     9    26   ar
    15    10    26    1
    16    11    28   ar
    17    12    17   ar
    18    12    14   ar
    19    13    18    1
    20    13    12    1
    21    14    21   ar
    22    14    22    1
    23    15    23   ar
    24    15    16   ar
    25    16    18    1
    26    17    19   ar
    27    19    20   ar
    28    20    21   ar
    29    23    25   ar
    30    26    27   ar
    31    27    28   ar
    32    28    29    1
    33    10    30    1
    34    13    31    1
    35    13    32    1
    36    17    33    1
    37    21    34    1
    38    22    35    1
    39    22    36    1
    40    22    37    1
    41    23    38    1
    42    24    39    1
    43    24    40    1
    44    25    41    1
    45    29    42    1
    46    29    43    1
    47    29    44    1
@<TRIPOS>MOLECULE
46174111
 44 47 0 0 0
SMALL
GASTEIGER

@<TRIPOS>ATOM
      1 CL          0.1997   -6.4558    2.4173 Cl      1  LIG1       -0.0762
      2 S           1.3622   -4.7805   -0.8540 S.O2    1  LIG1        0.0758
      3 S          -1.1764   -1.4371   -1.5849 S.2     1  LIG1       -0.0918
      4 O           0.1646   -0.4273    4.1265 O.3     1  LIG1       -0.4526
      5 O          -0.4035    1.9052    4.3549 O.3     1  LIG1       -0.4526
      6 O           2.5457   -2.0319   -0.4779 O.2     1  LIG1       -0.2911
      7 O           2.3516   -4.5759   -1.8875 O.2     1  LIG1       -0.1499
      8 O           0.6355   -6.0250   -0.7354 O.2     1  LIG1       -0.1499
      9 O           3.8934   -5.6847    1.4811 O.2     1  LIG1       -0.3364
     10 N           2.0296   -4.3301    0.6372 N.pl3   1  LIG1       -0.1821
     11 N           4.0874   -6.8161    2.2577 N.ar    1  LIG1       -0.0798
     12 C           0.9075    0.5908    0.6558 C.ar    1  LIG1       -0.0333
     13 C           1.4269    0.0510   -0.6683 C.3     1  LIG1        0.0366
     14 C           0.5907    1.9743    0.8033 C.ar    1  LIG1       -0.0432
     15 C           0.1311   -3.6063   -1.2322 C.ar    1  LIG1        0.1261
     16 C           0.2925   -2.2283   -1.1645 C.ar    1  LIG1        0.0814
     17 C           0.7867   -0.2578    1.7780 C.ar    1  LIG1       -0.0123
     18 C           1.4877   -1.4686   -0.7819 C.2     1  LIG1        0.1759
     19 C           0.3342    0.2671    2.9698 C.ar    1  LIG1        0.1665
     20 C           0.0118    1.5909    3.0997 C.ar    1  LIG1        0.1665
     21 C           0.1304    2.4648    2.0436 C.ar    1  LIG1       -0.0130
     22 C           0.7392    2.9856   -0.3049 C.3     1  LIG1       -0.0393
     23 C          -1.1856   -3.9915   -1.6408 C.ar    1  LIG1       -0.0273
     24 C          -0.2961    0.6209    5.0041 C.3     1  LIG1        0.2332
     25 C          -1.9964   -2.9047   -1.8612 C.ar    1  LIG1       -0.0217
     26 C           2.5607   -5.4392    1.3525 C.ar    1  LIG1        0.2554
     27 C           1.8649   -6.3602    2.1024 C.ar    1  LIG1        0.1262
     28 C           2.8621   -7.2147    2.6270 C.ar    1  LIG1        0.1009
     29 C           2.6897   -8.3993    3.4989 C.3     1  LIG1       -0.0176
     30 H           2.7609   -3.6411    0.4022 H       1  LIG1        0.1768
     31 H           0.8460    0.4424   -1.5088 H       1  LIG1        0.0394
     32 H           2.4509    0.4233   -0.8052 H       1  LIG1        0.0394
     33 H           1.0465   -1.3111    1.7513 H       1  LIG1        0.0658
     34 H          -0.1174    3.5134    2.1784 H       1  LIG1        0.0658
     35 H           1.1144    2.5592   -1.2369 H       1  LIG1        0.0278
     36 H           1.4461    3.7651   -0.0003 H       1  LIG1        0.0278
     37 H          -0.2302    3.4482   -0.5187 H       1  LIG1        0.0278
     38 H          -1.5201   -5.0174   -1.7555 H       1  LIG1        0.0643
     39 H           0.4046    0.7086    5.8425 H       1  LIG1        0.1166
     40 H          -1.2810    0.3422    5.3962 H       1  LIG1        0.1166
     41 H          -3.0343   -2.9058   -2.1681 H       1  LIG1        0.0694
     42 H           3.6399   -8.9140    3.6745 H       1  LIG1        0.0294
     43 H           2.0009   -9.1158    3.0397 H       1  LIG1        0.0294
     44 H           2.2811   -8.1023    4.4702 H       1  LIG1        0.0294
@<TRIPOS>BOND
     1     1    27    1
     2     2    10    1
     3     2    15    1
     4     2     8    2
     5     2     7    2
     6     3    16   ar
     7     3    25   ar
     8     4    24    1
     9     4    19    1
    10     5    20    1
    11     5    24    1
    12     6    18    2
    13     9    11   ar
    14     9    26   ar
    15    10    26    1
    16    11    28   ar
    17    12    17   ar
    18    12    14   ar
    19    13    18    1
    20    13    12    1
    21    14    21   ar
    22    14    22    1
    23    15    23   ar
    24    15    16   ar
    25    16    18    1
    26    17    19   ar
    27    19    20   ar
    28    20    21   ar
    29    23    25   ar
    30    26    27   ar
    31    27    28   ar
    32    28    29    1
    33    10    30    1
    34    13    31    1
    35    13    32    1
    36    17    33    1
    37    21    34    1
    38    22    35    1
    39    22    36    1
    40    22    37    1
    41    23    38    1
    42    24    39    1
    43    24    40    1
    44    25    41    1
    45    29    42    1
    46    29    43    1
    47    29    44    1
@<TRIPOS>MOLECULE
46174111
 44 47 0 0 0
SMALL
GASTEIGER

@<TRIPOS>ATOM
      1 CL         -0.3689   -5.2299   -4.0106 Cl      1  LIG1       -0.0762
      2 S           1.1674   -4.6540   -0.5552 S.O2    1  LIG1        0.0758
      3 S          -1.2824   -1.3244   -1.5579 S.2     1  LIG1       -0.0918
      4 O           2.5109    1.8628   -5.1648 O.3     1  LIG1       -0.4526
      5 O           1.0492    3.7600   -4.8807 O.3     1  LIG1       -0.4526
      6 O           2.5001   -1.9823   -1.5455 O.2     1  LIG1       -0.2911
      7 O           0.4255   -5.8670   -0.2798 O.2     1  LIG1       -0.1499
      8 O           1.9289   -4.0050    0.4882 O.2     1  LIG1       -0.1499
      9 O           2.6675   -7.1928   -2.5889 O.2     1  LIG1       -0.3364
     10 N           2.1902   -4.8947   -1.8824 N.pl3   1  LIG1       -0.1821
     11 N           2.0938   -8.1872   -3.3643 N.ar    1  LIG1       -0.0798
     12 C           1.3142    1.0535   -1.7702 C.ar    1  LIG1       -0.0333
     13 C           1.4873    0.0058   -0.6852 C.3     1  LIG1        0.0366
     14 C           0.4857    2.2000   -1.5887 C.ar    1  LIG1       -0.0432
     15 C          -0.0555   -3.4917   -0.9672 C.ar    1  LIG1        0.1261
     16 C           0.1791   -2.1456   -1.1901 C.ar    1  LIG1        0.0814
     17 C           2.0439    0.9152   -2.9697 C.ar    1  LIG1       -0.0123
     18 C           1.4551   -1.4383   -1.1802 C.2     1  LIG1        0.1759
     19 C           1.8907    1.8659   -3.9551 C.ar    1  LIG1        0.1665
     20 C           1.0622    2.9449   -3.7926 C.ar    1  LIG1        0.1665
     21 C           0.3510    3.1398   -2.6299 C.ar    1  LIG1       -0.0130
     22 C          -0.2969    2.4396   -0.3240 C.3     1  LIG1       -0.0393
     23 C          -1.4443   -3.8275   -1.0606 C.ar    1  LIG1       -0.0273
     24 C           1.9699    3.0659   -5.7480 C.3     1  LIG1        0.2332
     25 C          -2.2175   -2.7417   -1.3954 C.ar    1  LIG1       -0.0217
     26 C           1.8851   -6.0775   -2.6157 C.ar    1  LIG1        0.2554
     27 C           0.8352   -6.2973   -3.4784 C.ar    1  LIG1        0.1262
     28 C           0.9874   -7.6428   -3.8883 C.ar    1  LIG1        0.1009
     29 C           0.1188   -8.4341   -4.7901 C.3     1  LIG1       -0.0176
     30 H           3.1466   -4.8930   -1.5225 H       1  LIG1        0.1768
     31 H           2.4574    0.1726   -0.1995 H       1  LIG1        0.0394
     32 H           0.7418    0.1035    0.1105 H       1  LIG1        0.0394
     33 H           2.7224    0.0833   -3.1371 H       1  LIG1        0.0658
     34 H          -0.2902    4.0101   -2.5301 H       1  LIG1        0.0658
     35 H           0.3167    2.2477    0.5613 H       1  LIG1        0.0278
     36 H          -1.1854    1.8017   -0.3036 H       1  LIG1        0.0278
     37 H          -0.6250    3.4827   -0.2530 H       1  LIG1        0.0278
     38 H          -1.8507   -4.8217   -0.9060 H       1  LIG1        0.0643
     39 H           1.4472    2.8016   -6.6745 H       1  LIG1        0.1166
     40 H           2.7986    3.7406   -5.9918 H       1  LIG1        0.1166
     41 H          -3.2881   -2.7139   -1.5503 H       1  LIG1        0.0694
     42 H           0.2996   -9.5085   -4.6813 H       1  LIG1        0.0294
     43 H           0.3022   -8.1590   -5.8334 H       1  LIG1        0.0294
     44 H          -0.9385   -8.2543   -4.5677 H       1  LIG1        0.0294
@<TRIPOS>BOND
     1     1    27    1
     2     2    10    1
     3     2    15    1
     4     2     8    2
     5     2     7    2
     6     3    16   ar
     7     3    25   ar
     8     4    24    1
     9     4    19    1
    10     5    20    1
    11     5    24    1
    12     6    18    2
    13     9    11   ar
    14     9    26   ar
    15    10    26    1
    16    11    28   ar
    17    12    17   ar
    18    12    14   ar
    19    13    18    1
    20    13    12    1
    21    14    21   ar
    22    14    22    1
    23    15    23   ar
    24    15    16   ar
    25    16    18    1
    26    17    19   ar
    27    19    20   ar
    28    20    21   ar
    29    23    25   ar
    30    26    27   ar
    31    27    28   ar
    32    28    29    1
    33    10    30    1
    34    13    31    1
    35    13    32    1
    36    17    33    1
    37    21    34    1
    38    22    35    1
    39    22    36    1
    40    22    37    1
    41    23    38    1
    42    24    39    1
    43    24    40    1
    44    25    41    1
    45    29    42    1
    46    29    43    1
    47    29    44    1
@<TRIPOS>MOLECULE
46174111
 44 47 0 0 0
SMALL
GASTEIGER

@<TRIPOS>ATOM
      1 CL          1.6281   -7.1797    2.2246 Cl      1  LIG1       -0.0762
      2 S           1.5056   -4.7436   -0.7445 S.O2    1  LIG1        0.0758
      3 S          -1.1966   -1.5632   -1.6302 S.2     1  LIG1       -0.0918
      4 O          -1.5301    0.0593    3.6760 O.3     1  LIG1       -0.4526
      5 O           0.3645    0.2517    5.1557 O.3     1  LIG1       -0.4526
      6 O           2.5448   -1.9195   -0.5289 O.2     1  LIG1       -0.2911
      7 O           2.4363   -4.5532   -1.8334 O.2     1  LIG1       -0.1499
      8 O           0.8287   -6.0040   -0.5373 O.2     1  LIG1       -0.1499
      9 O           4.5464   -4.8537    1.1287 O.2     1  LIG1       -0.3364
     10 N           2.2246   -4.2231    0.7014 N.pl3   1  LIG1       -0.1821
     11 N           5.2733   -5.9116    1.6432 N.ar    1  LIG1       -0.0798
     12 C           1.0943    0.2489    1.0931 C.ar    1  LIG1       -0.0333
     13 C           1.2348    0.0597   -0.4048 C.3     1  LIG1        0.0366
     14 C           2.2114    0.3787    1.9654 C.ar    1  LIG1       -0.0432
     15 C           0.2070   -3.6423   -1.1326 C.ar    1  LIG1        0.1261
     16 C           0.2887   -2.2553   -1.1090 C.ar    1  LIG1        0.0814
     17 C          -0.2062    0.1707    1.6371 C.ar    1  LIG1       -0.0123
     18 C           1.4297   -1.4224   -0.7263 C.2     1  LIG1        0.1759
     19 C          -0.3538    0.1814    3.0050 C.ar    1  LIG1        0.1665
     20 C           0.7220    0.2902    3.8452 C.ar    1  LIG1        0.1665
     21 C           2.0062    0.4047    3.3597 C.ar    1  LIG1       -0.0130
     22 C           3.6418    0.4616    1.4957 C.3     1  LIG1       -0.0393
     23 C          -1.0905   -4.1107   -1.5197 C.ar    1  LIG1       -0.0273
     24 C          -1.0601    0.0532    5.0402 C.3     1  LIG1        0.2332
     25 C          -1.9520   -3.0788   -1.8020 C.ar    1  LIG1       -0.0217
     26 C           3.2148   -5.1432    1.1648 C.ar    1  LIG1        0.2554
     27 C           3.0475   -6.3659    1.7765 C.ar    1  LIG1        0.1262
     28 C           4.3662   -6.8199    2.0246 C.ar    1  LIG1        0.1009
     29 C           4.8025   -8.0966    2.6358 C.3     1  LIG1       -0.0176
     30 H           2.6941   -3.3334    0.4673 H       1  LIG1        0.1768
     31 H           0.3794    0.4965   -0.9260 H       1  LIG1        0.0394
     32 H           2.0886    0.6172   -0.8026 H       1  LIG1        0.0394
     33 H          -1.0859    0.0717    1.0104 H       1  LIG1        0.0658
     34 H           2.8403    0.4880    4.0503 H       1  LIG1        0.0658
     35 H           3.7489    0.4670    0.4106 H       1  LIG1        0.0278
     36 H           4.2077   -0.3950    1.8768 H       1  LIG1        0.0278
     37 H           4.0996    1.3846    1.8682 H       1  LIG1        0.0278
     38 H          -1.3736   -5.1564   -1.5844 H       1  LIG1        0.0643
     39 H          -1.3173   -0.9117    5.4936 H       1  LIG1        0.1166
     40 H          -1.5721    0.8493    5.5915 H       1  LIG1        0.1166
     41 H          -2.9863   -3.1465   -2.1130 H       1  LIG1        0.0694
     42 H           5.8941   -8.1817    2.6554 H       1  LIG1        0.0294
     43 H           4.4118   -8.9457    2.0657 H       1  LIG1        0.0294
     44 H           4.4393   -8.1740    3.6654 H       1  LIG1        0.0294
@<TRIPOS>BOND
     1     1    27    1
     2     2    10    1
     3     2    15    1
     4     2     8    2
     5     2     7    2
     6     3    16   ar
     7     3    25   ar
     8     4    24    1
     9     4    19    1
    10     5    20    1
    11     5    24    1
    12     6    18    2
    13     9    11   ar
    14     9    26   ar
    15    10    26    1
    16    11    28   ar
    17    12    17   ar
    18    12    14   ar
    19    13    18    1
    20    13    12    1
    21    14    21   ar
    22    14    22    1
    23    15    23   ar
    24    15    16   ar
    25    16    18    1
    26    17    19   ar
    27    19    20   ar
    28    20    21   ar
    29    23    25   ar
    30    26    27   ar
    31    27    28   ar
    32    28    29    1
    33    10    30    1
    34    13    31    1
    35    13    32    1
    36    17    33    1
    37    21    34    1
    38    22    35    1
    39    22    36    1
    40    22    37    1
    41    23    38    1
    42    24    39    1
    43    24    40    1
    44    25    41    1
    45    29    42    1
    46    29    43    1
    47    29    44    1
@<TRIPOS>MOLECULE
46174111
 44 47 0 0 0
SMALL
GASTEIGER

@<TRIPOS>ATOM
      1 CL         -0.8264   -5.4755    2.0828 Cl      1  LIG1       -0.0762
      2 S           1.3924   -4.6921   -0.7488 S.O2    1  LIG1        0.0758
      3 S          -1.2180   -1.3830   -1.3716 S.2     1  LIG1       -0.0918
      4 O           4.2625    2.4610    2.7278 O.3     1  LIG1       -0.4526
      5 O           5.9875    2.8717    1.0922 O.3     1  LIG1       -0.4526
      6 O           2.5003   -1.9147   -0.2329 O.2     1  LIG1       -0.2911
      7 O           2.4018   -4.3931   -1.7412 O.2     1  LIG1       -0.1499
      8 O           0.7115   -5.9678   -0.7422 O.2     1  LIG1       -0.1499
      9 O           3.0251   -5.9518    2.3115 O.2     1  LIG1       -0.3364
     10 N           2.0197   -4.3377    0.7731 N.pl3   1  LIG1       -0.1821
     11 N           2.6232   -6.9148    3.2219 N.ar    1  LIG1       -0.0798
     12 C           2.5919    0.8864   -0.1582 C.ar    1  LIG1       -0.0333
     13 C           1.3057    0.1536   -0.4945 C.3     1  LIG1        0.0366
     14 C           3.6115    1.1258   -1.1225 C.ar    1  LIG1       -0.0432
     15 C           0.1371   -3.5329   -1.0811 C.ar    1  LIG1        0.1261
     16 C           0.2678   -2.1549   -0.9636 C.ar    1  LIG1        0.0814
     17 C           2.7729    1.3248    1.1703 C.ar    1  LIG1       -0.0123
     18 C           1.4415   -1.3710   -0.5542 C.2     1  LIG1        0.1759
     19 C           3.9385    1.9821    1.4971 C.ar    1  LIG1        0.1665
     20 C           4.9186    2.2154    0.5679 C.ar    1  LIG1        0.1665
     21 C           4.7880    1.8007   -0.7389 C.ar    1  LIG1       -0.0130
     22 C           3.5361    0.6392   -2.5459 C.3     1  LIG1       -0.0393
     23 C          -1.1673   -3.9321   -1.5182 C.ar    1  LIG1       -0.0273
     24 C           5.5715    3.0091    2.4666 C.3     1  LIG1        0.2332
     25 C          -2.0006   -2.8572   -1.7091 C.ar    1  LIG1       -0.0217
     26 C           1.9327   -5.3839    1.7271 C.ar    1  LIG1        0.2554
     27 C           0.8000   -5.9115    2.3061 C.ar    1  LIG1        0.1262
     28 C           1.2836   -6.8823    3.2143 C.ar    1  LIG1        0.1009
     29 C           0.5111   -7.7671    4.1161 C.3     1  LIG1       -0.0176
     30 H           2.9555   -3.9415    0.6450 H       1  LIG1        0.1768
     31 H           0.5537    0.3931    0.2685 H       1  LIG1        0.0394
     32 H           0.9230    0.5403   -1.4446 H       1  LIG1        0.0394
     33 H           2.0238    1.1507    1.9361 H       1  LIG1        0.0658
     34 H           5.5881    1.9862   -1.4488 H       1  LIG1        0.0658
     35 H           2.5337    0.3223   -2.8403 H       1  LIG1        0.0278
     36 H           4.2138   -0.2096   -2.6826 H       1  LIG1        0.0278
     37 H           3.8278    1.4414   -3.2329 H       1  LIG1        0.0278
     38 H          -1.4758   -4.9600   -1.6773 H       1  LIG1        0.0643
     39 H           6.2999    2.4974    3.1064 H       1  LIG1        0.1166
     40 H           5.5632    4.0740    2.7257 H       1  LIG1        0.1166
     41 H          -3.0337   -2.8709   -2.0311 H       1  LIG1        0.0694
     42 H           1.1229   -8.5963    4.4859 H       1  LIG1        0.0294
     43 H          -0.3506   -8.1971    3.5954 H       1  LIG1        0.0294
     44 H           0.1451   -7.2017    4.9791 H       1  LIG1        0.0294
@<TRIPOS>BOND
     1     1    27    1
     2     2    10    1
     3     2    15    1
     4     2     8    2
     5     2     7    2
     6     3    16   ar
     7     3    25   ar
     8     4    24    1
     9     4    19    1
    10     5    20    1
    11     5    24    1
    12     6    18    2
    13     9    11   ar
    14     9    26   ar
    15    10    26    1
    16    11    28   ar
    17    12    17   ar
    18    12    14   ar
    19    13    18    1
    20    13    12    1
    21    14    21   ar
    22    14    22    1
    23    15    23   ar
    24    15    16   ar
    25    16    18    1
    26    17    19   ar
    27    19    20   ar
    28    20    21   ar
    29    23    25   ar
    30    26    27   ar
    31    27    28   ar
    32    28    29    1
    33    10    30    1
    34    13    31    1
    35    13    32    1
    36    17    33    1
    37    21    34    1
    38    22    35    1
    39    22    36    1
    40    22    37    1
    41    23    38    1
    42    24    39    1
    43    24    40    1
    44    25    41    1
    45    29    42    1
    46    29    43    1
    47    29    44    1
@<TRIPOS>MOLECULE
46174111
 44 47 0 0 0
SMALL
GASTEIGER

@<TRIPOS>ATOM
      1 CL          3.3494   -6.5616    2.8859 Cl      1  LIG1       -0.0762
      2 S           1.3678   -4.6984   -1.0167 S.O2    1  LIG1        0.0758
      3 S          -1.2731   -1.3611   -1.1654 S.2     1  LIG1       -0.0918
      4 O           5.9860    1.6927    0.5094 O.3     1  LIG1       -0.4526
      5 O           5.4636    2.2720    2.7920 O.3     1  LIG1       -0.4526
      6 O           2.3787   -2.0356    0.0549 O.2     1  LIG1       -0.2911
      7 O           2.3674   -4.1870   -1.9254 O.2     1  LIG1       -0.1499
      8 O           0.7248   -5.9699   -1.2820 O.2     1  LIG1       -0.1499
      9 O          -0.1051   -5.3518    1.5939 O.2     1  LIG1       -0.3364
     10 N           2.0306   -4.7536    0.5128 N.pl3   1  LIG1       -0.1821
     11 N          -0.5284   -6.0960    2.6836 N.ar    1  LIG1       -0.0798
     12 C           2.4303    0.7298    0.4642 C.ar    1  LIG1       -0.0333
     13 C           1.4033    0.0948   -0.4585 C.3     1  LIG1        0.0366
     14 C           2.1257    1.0579    1.8166 C.ar    1  LIG1       -0.0432
     15 C           0.0841   -3.5286   -1.1050 C.ar    1  LIG1        0.1261
     16 C           0.2144   -2.1686   -0.8544 C.ar    1  LIG1        0.0814
     17 C           3.7345    0.9331   -0.0287 C.ar    1  LIG1       -0.0123
     18 C           1.3927   -1.4376   -0.3791 C.2     1  LIG1        0.1759
     19 C           4.6843    1.4536    0.8218 C.ar    1  LIG1        0.1665
     20 C           4.3874    1.7821    2.1202 C.ar    1  LIG1        0.1665
     21 C           3.1242    1.6080    2.6417 C.ar    1  LIG1       -0.0130
     22 C           0.7470    0.8742    2.3936 C.3     1  LIG1       -0.0393
     23 C          -1.2398   -3.8885   -1.5176 C.ar    1  LIG1       -0.0273
     24 C           6.4828    2.1723    1.7756 C.3     1  LIG1        0.2332
     25 C          -2.0752   -2.8013   -1.5892 C.ar    1  LIG1       -0.0217
     26 C           1.2533   -5.3909    1.5080 C.ar    1  LIG1        0.2554
     27 C           1.7396   -6.1550    2.5426 C.ar    1  LIG1        0.1262
     28 C           0.5870   -6.5964    3.2331 C.ar    1  LIG1        0.1009
     29 C           0.4929   -7.5196    4.3874 C.3     1  LIG1       -0.0176
     30 H           3.0419   -4.8638    0.5275 H       1  LIG1        0.1768
     31 H           0.4266    0.5198   -0.2147 H       1  LIG1        0.0394
     32 H           1.6145    0.3772   -1.4980 H       1  LIG1        0.0394
     33 H           4.0064    0.6669   -1.0452 H       1  LIG1        0.0658
     34 H           2.9229    1.8798    3.6729 H       1  LIG1        0.0658
     35 H           0.3119   -0.0805    2.0848 H       1  LIG1        0.0278
     36 H           0.0960    1.6929    2.0716 H       1  LIG1        0.0278
     37 H           0.7739    0.8662    3.4890 H       1  LIG1        0.0278
     38 H          -1.5556   -4.8984   -1.7624 H       1  LIG1        0.0643
     39 H           6.9259    3.1632    1.6258 H       1  LIG1        0.1166
     40 H           7.2630    1.4876    2.1279 H       1  LIG1        0.1166
     41 H          -3.1177   -2.7872   -1.8791 H       1  LIG1        0.0694
     42 H          -0.4286   -7.3555    4.9558 H       1  LIG1        0.0294
     43 H           1.3348   -7.3864    5.0728 H       1  LIG1        0.0294
     44 H           0.4963   -8.5570    4.0367 H       1  LIG1        0.0294
@<TRIPOS>BOND
     1     1    27    1
     2     2    10    1
     3     2    15    1
     4     2     8    2
     5     2     7    2
     6     3    16   ar
     7     3    25   ar
     8     4    24    1
     9     4    19    1
    10     5    20    1
    11     5    24    1
    12     6    18    2
    13     9    11   ar
    14     9    26   ar
    15    10    26    1
    16    11    28   ar
    17    12    17   ar
    18    12    14   ar
    19    13    18    1
    20    13    12    1
    21    14    21   ar
    22    14    22    1
    23    15    23   ar
    24    15    16   ar
    25    16    18    1
    26    17    19   ar
    27    19    20   ar
    28    20    21   ar
    29    23    25   ar
    30    26    27   ar
    31    27    28   ar
    32    28    29    1
    33    10    30    1
    34    13    31    1
    35    13    32    1
    36    17    33    1
    37    21    34    1
    38    22    35    1
    39    22    36    1
    40    22    37    1
    41    23    38    1
    42    24    39    1
    43    24    40    1
    44    25    41    1
    45    29    42    1
    46    29    43    1
    47    29    44    1
@<TRIPOS>MOLECULE
46174111
 44 47 0 0 0
SMALL
GASTEIGER

@<TRIPOS>ATOM
      1 CL          4.0974   -6.8627    0.9917 Cl      1  LIG1       -0.0762
      2 S           1.7181   -4.7370   -0.7813 S.O2    1  LIG1        0.0758
      3 S          -1.1926   -1.6817   -1.5917 S.2     1  LIG1       -0.0918
      4 O           0.6060   -0.9168    4.2921 O.3     1  LIG1       -0.4526
      5 O          -1.4387    0.3410    4.5181 O.3     1  LIG1       -0.4526
      6 O           2.6280   -1.6035   -1.0597 O.2     1  LIG1       -0.2911
      7 O           1.8946   -5.4241   -2.0431 O.2     1  LIG1       -0.1499
      8 O           1.2029   -5.4231    0.3848 O.2     1  LIG1       -0.1499
      9 O           3.8407   -3.0573    1.7406 O.2     1  LIG1       -0.3364
     10 N           3.1631   -3.9705   -0.4161 N.pl3   1  LIG1       -0.1821
     11 N           4.3048   -3.4961    2.9673 N.ar    1  LIG1       -0.0798
     12 C           0.3776    0.2783    0.8065 C.ar    1  LIG1       -0.0333
     13 C           1.1213    0.1502   -0.5100 C.3     1  LIG1        0.0366
     14 C          -0.8009    1.0652    0.9576 C.ar    1  LIG1       -0.0432
     15 C           0.4031   -3.6402   -1.1427 C.ar    1  LIG1        0.1261
     16 C           0.3751   -2.2520   -1.1513 C.ar    1  LIG1        0.0814
     17 C           0.9091   -0.3902    1.9323 C.ar    1  LIG1       -0.0123
     18 C           1.4450   -1.2870   -0.9166 C.2     1  LIG1        0.1759
     19 C           0.2345   -0.3149    3.1316 C.ar    1  LIG1        0.1665
     20 C          -0.9247    0.4022    3.2614 C.ar    1  LIG1        0.1665
     21 C          -1.4623    1.0986    2.2031 C.ar    1  LIG1       -0.0130
     22 C          -1.4379    1.8527   -0.1580 C.3     1  LIG1       -0.0393
     23 C          -0.8851   -4.2042   -1.4558 C.ar    1  LIG1       -0.0273
     24 C          -0.4637   -0.5023    5.1667 C.3     1  LIG1        0.2332
     25 C          -1.8367   -3.2487   -1.7096 C.ar    1  LIG1       -0.0217
     26 C           3.6219   -4.1220    0.9197 C.ar    1  LIG1        0.2554
     27 C           4.0114   -5.2702    1.5725 C.ar    1  LIG1        0.1262
     28 C           4.4166   -4.8269    2.8548 C.ar    1  LIG1        0.1009
     29 C           4.9574   -5.6189    3.9832 C.3     1  LIG1       -0.0176
     30 H           3.1909   -2.9962   -0.7378 H       1  LIG1        0.1768
     31 H           0.6069    0.6170   -1.3523 H       1  LIG1        0.0394
     32 H           2.0697    0.6938   -0.4040 H       1  LIG1        0.0394
     33 H           1.8323   -0.9610    1.8820 H       1  LIG1        0.0658
     34 H          -2.3787    1.6648    2.3404 H       1  LIG1        0.0658
     35 H          -0.7478    2.0805   -0.9720 H       1  LIG1        0.0278
     36 H          -1.7870    2.8210    0.2183 H       1  LIG1        0.0278
     37 H          -2.2954    1.3048   -0.5606 H       1  LIG1        0.0278
     38 H          -1.0893   -5.2697   -1.4864 H       1  LIG1        0.0643
     39 H          -0.0339    0.0463    6.0127 H       1  LIG1        0.1166
     40 H          -0.9715   -1.3958    5.5480 H       1  LIG1        0.1166
     41 H          -2.8772   -3.4008   -1.9656 H       1  LIG1        0.0694
     42 H           4.7396   -5.1405    4.9436 H       1  LIG1        0.0294
     43 H           6.0437   -5.7160    3.8877 H       1  LIG1        0.0294
     44 H           4.5233   -6.6232    4.0083 H       1  LIG1        0.0294
@<TRIPOS>BOND
     1     1    27    1
     2     2    10    1
     3     2    15    1
     4     2     8    2
     5     2     7    2
     6     3    16   ar
     7     3    25   ar
     8     4    24    1
     9     4    19    1
    10     5    20    1
    11     5    24    1
    12     6    18    2
    13     9    11   ar
    14     9    26   ar
    15    10    26    1
    16    11    28   ar
    17    12    17   ar
    18    12    14   ar
    19    13    18    1
    20    13    12    1
    21    14    21   ar
    22    14    22    1
    23    15    23   ar
    24    15    16   ar
    25    16    18    1
    26    17    19   ar
    27    19    20   ar
    28    20    21   ar
    29    23    25   ar
    30    26    27   ar
    31    27    28   ar
    32    28    29    1
    33    10    30    1
    34    13    31    1
    35    13    32    1
    36    17    33    1
    37    21    34    1
    38    22    35    1
    39    22    36    1
    40    22    37    1
    41    23    38    1
    42    24    39    1
    43    24    40    1
    44    25    41    1
    45    29    42    1
    46    29    43    1
    47    29    44    1
@<TRIPOS>MOLECULE
46174111
 44 47 0 0 0
SMALL
GASTEIGER

@<TRIPOS>ATOM
      1 CL          0.9525   -5.9651   -4.1564 Cl      1  LIG1       -0.0762
      2 S           1.4051   -4.6795   -0.7313 S.O2    1  LIG1        0.0758
      3 S          -1.1429   -1.4715   -1.8809 S.2     1  LIG1       -0.0918
      4 O           4.3177    2.4898    2.5953 O.3     1  LIG1       -0.4526
      5 O           3.4505    1.4925    4.6133 O.3     1  LIG1       -0.4526
      6 O           2.5780   -1.8151   -0.8828 O.2     1  LIG1       -0.2911
      7 O           0.8209   -5.9916   -0.9074 O.2     1  LIG1       -0.1499
      8 O           1.7641   -4.1988    0.5836 O.2     1  LIG1       -0.1499
      9 O           4.3695   -6.1797   -2.3148 O.2     1  LIG1       -0.3364
     10 N           2.7235   -4.4575   -1.7577 N.pl3   1  LIG1       -0.1821
     11 N           4.4839   -7.2880   -3.1376 N.ar    1  LIG1       -0.0798
     12 C           1.7595    0.3473    1.0270 C.ar    1  LIG1       -0.0333
     13 C           1.1716    0.0439   -0.3383 C.3     1  LIG1        0.0366
     14 C           1.2380   -0.2276    2.2223 C.ar    1  LIG1       -0.0432
     15 C           0.1624   -3.5787   -1.2501 C.ar    1  LIG1        0.1261
     16 C           0.2797   -2.1969   -1.2427 C.ar    1  LIG1        0.0814
     17 C           2.8186    1.2740    1.1063 C.ar    1  LIG1       -0.0123
     18 C           1.4237   -1.3818   -0.8269 C.2     1  LIG1        0.1759
     19 C           3.3200    1.5993    2.3483 C.ar    1  LIG1        0.1665
     20 C           2.8260    1.0347    3.4958 C.ar    1  LIG1        0.1665
     21 C           1.8011    0.1158    3.4662 C.ar    1  LIG1       -0.0130
     22 C           0.1155   -1.2308    2.2138 C.3     1  LIG1       -0.0393
     23 C          -1.1158   -4.0218   -1.7167 C.ar    1  LIG1       -0.0273
     24 C           4.3835    2.4281    4.0355 C.3     1  LIG1        0.2332
     25 C          -1.9224   -2.9728   -2.0873 C.ar    1  LIG1       -0.0217
     26 C           3.1369   -5.6189   -2.4630 C.ar    1  LIG1        0.2554
     27 C           2.4588   -6.3027   -3.4486 C.ar    1  LIG1        0.1262
     28 C           3.3292   -7.3563   -3.8141 C.ar    1  LIG1        0.1009
     29 C           3.1177   -8.4223   -4.8207 C.3     1  LIG1       -0.0176
     30 H           3.4652   -3.9929   -1.2255 H       1  LIG1        0.1768
     31 H           0.1097    0.2970   -0.2917 H       1  LIG1        0.0394
     32 H           1.5980    0.7116   -1.0984 H       1  LIG1        0.0394
     33 H           3.2363    1.7406    0.2199 H       1  LIG1        0.0658
     34 H           1.4378   -0.3183    4.3924 H       1  LIG1        0.0658
     35 H          -0.6763   -0.9343    1.5205 H       1  LIG1        0.0278
     36 H          -0.3510   -1.3112    3.2017 H       1  LIG1        0.0278
     37 H           0.4959   -2.2175    1.9393 H       1  LIG1        0.0278
     38 H          -1.4226   -5.0605   -1.7831 H       1  LIG1        0.0643
     39 H           4.1724    3.4257    4.4385 H       1  LIG1        0.1166
     40 H           5.3988    2.1384    4.3290 H       1  LIG1        0.1166
     41 H          -2.9302   -3.0196   -2.4788 H       1  LIG1        0.0694
     42 H           3.7718   -9.2810   -4.6371 H       1  LIG1        0.0294
     43 H           3.3258   -8.0418   -5.8257 H       1  LIG1        0.0294
     44 H           2.0846   -8.7841   -4.7967 H       1  LIG1        0.0294
@<TRIPOS>BOND
     1     1    27    1
     2     2    10    1
     3     2    15    1
     4     2     8    2
     5     2     7    2
     6     3    16   ar
     7     3    25   ar
     8     4    24    1
     9     4    19    1
    10     5    20    1
    11     5    24    1
    12     6    18    2
    13     9    11   ar
    14     9    26   ar
    15    10    26    1
    16    11    28   ar
    17    12    17   ar
    18    12    14   ar
    19    13    18    1
    20    13    12    1
    21    14    21   ar
    22    14    22    1
    23    15    23   ar
    24    15    16   ar
    25    16    18    1
    26    17    19   ar
    27    19    20   ar
    28    20    21   ar
    29    23    25   ar
    30    26    27   ar
    31    27    28   ar
    32    28    29    1
    33    10    30    1
    34    13    31    1
    35    13    32    1
    36    17    33    1
    37    21    34    1
    38    22    35    1
    39    22    36    1
    40    22    37    1
    41    23    38    1
    42    24    39    1
    43    24    40    1
    44    25    41    1
    45    29    42    1
    46    29    43    1
    47    29    44    1
@<TRIPOS>MOLECULE
46174111
 44 47 0 0 0
SMALL
GASTEIGER

@<TRIPOS>ATOM
      1 CL          2.4367   -7.6592    1.5514 Cl      1  LIG1       -0.0762
      2 S           1.6412   -4.6231   -0.8058 S.O2    1  LIG1        0.0758
      3 S          -1.3855   -1.6422   -1.1579 S.2     1  LIG1       -0.0918
      4 O           5.7452    1.7856    0.6352 O.3     1  LIG1       -0.4526
      5 O           4.7972    3.0617    2.4493 O.3     1  LIG1       -0.4526
      6 O           2.0460   -1.8711    0.5223 O.2     1  LIG1       -0.2911
      7 O           2.5432   -3.9920   -1.7427 O.2     1  LIG1       -0.1499
      8 O           1.1678   -5.9772   -1.0001 O.2     1  LIG1       -0.1499
      9 O           0.6565   -4.3599    2.5786 O.2     1  LIG1       -0.3364
     10 N           2.2856   -4.4418    0.7499 N.pl3   1  LIG1       -0.1821
     11 N           0.0605   -5.2272    3.4792 N.ar    1  LIG1       -0.0798
     12 C           2.2125    0.8951    0.0749 C.ar    1  LIG1       -0.0333
     13 C           1.3619    0.0108   -0.8202 C.3     1  LIG1        0.0366
     14 C           1.6560    1.6322    1.1585 C.ar    1  LIG1       -0.0432
     15 C           0.2017   -3.6452   -0.9726 C.ar    1  LIG1        0.1261
     16 C           0.1646   -2.2709   -0.7890 C.ar    1  LIG1        0.0814
     17 C           3.6053    0.9192   -0.1443 C.ar    1  LIG1       -0.0123
     18 C           1.2304   -1.4157   -0.2838 C.2     1  LIG1        0.1759
     19 C           4.3919    1.6708    0.7006 C.ar    1  LIG1        0.1665
     20 C           3.8532    2.3946    1.7331 C.ar    1  LIG1        0.1665
     21 C           2.4979    2.4051    1.9805 C.ar    1  LIG1       -0.0130
     22 C           0.1773    1.6598    1.4394 C.3     1  LIG1       -0.0393
     23 C          -1.0533   -4.1691   -1.4163 C.ar    1  LIG1       -0.0273
     24 C           5.9978    2.6406    1.7696 C.3     1  LIG1        0.2332
     25 C          -2.0037   -3.1835   -1.5520 C.ar    1  LIG1       -0.0217
     26 C           1.4901   -5.0537    1.7566 C.ar    1  LIG1        0.2554
     27 C           1.4999   -6.3741    2.1420 C.ar    1  LIG1        0.1262
     28 C           0.5895   -6.4323    3.2234 C.ar    1  LIG1        0.1009
     29 C           0.2266   -7.5992    4.0597 C.3     1  LIG1       -0.0176
     30 H           2.3939   -3.4280    0.9135 H       1  LIG1        0.1768
     31 H           0.3875    0.4853   -0.9611 H       1  LIG1        0.0394
     32 H           1.8175   -0.0515   -1.8166 H       1  LIG1        0.0394
     33 H           4.0666    0.3457   -0.9425 H       1  LIG1        0.0658
     34 H           2.1040    2.9906    2.8053 H       1  LIG1        0.0658
     35 H          -0.2836    0.6834    1.2639 H       1  LIG1        0.0278
     36 H          -0.3079    2.4092    0.8065 H       1  LIG1        0.0278
     37 H          -0.0184    1.9102    2.4879 H       1  LIG1        0.0278
     38 H          -1.2423   -5.2140   -1.6391 H       1  LIG1        0.0643
     39 H           6.5362    3.5307    1.4248 H       1  LIG1        0.1166
     40 H           6.6325    2.0999    2.4817 H       1  LIG1        0.1166
     41 H          -3.0314   -3.2951   -1.8742 H       1  LIG1        0.0694
     42 H          -0.6799   -7.4095    4.6439 H       1  LIG1        0.0294
     43 H           1.0380   -7.8304    4.7577 H       1  LIG1        0.0294
     44 H           0.0442   -8.4829    3.4393 H       1  LIG1        0.0294
@<TRIPOS>BOND
     1     1    27    1
     2     2    10    1
     3     2    15    1
     4     2     8    2
     5     2     7    2
     6     3    16   ar
     7     3    25   ar
     8     4    24    1
     9     4    19    1
    10     5    20    1
    11     5    24    1
    12     6    18    2
    13     9    11   ar
    14     9    26   ar
    15    10    26    1
    16    11    28   ar
    17    12    17   ar
    18    12    14   ar
    19    13    18    1
    20    13    12    1
    21    14    21   ar
    22    14    22    1
    23    15    23   ar
    24    15    16   ar
    25    16    18    1
    26    17    19   ar
    27    19    20   ar
    28    20    21   ar
    29    23    25   ar
    30    26    27   ar
    31    27    28   ar
    32    28    29    1
    33    10    30    1
    34    13    31    1
    35    13    32    1
    36    17    33    1
    37    21    34    1
    38    22    35    1
    39    22    36    1
    40    22    37    1
    41    23    38    1
    42    24    39    1
    43    24    40    1
    44    25    41    1
    45    29    42    1
    46    29    43    1
    47    29    44    1
@<TRIPOS>MOLECULE
46174111
 44 47 0 0 0
SMALL
GASTEIGER

@<TRIPOS>ATOM
      1 CL          4.1214   -6.7964    0.9962 Cl      1  LIG1       -0.0762
      2 S           1.6842   -4.6660   -0.8792 S.O2    1  LIG1        0.0758
      3 S          -1.2251   -1.5174   -1.1758 S.2     1  LIG1       -0.0918
      4 O           5.9349    1.6742    0.4808 O.3     1  LIG1       -0.4526
      5 O           5.4388    2.0510    2.8109 O.3     1  LIG1       -0.4526
      6 O           2.6318   -1.6412   -1.2854 O.2     1  LIG1       -0.2911
      7 O           1.8000   -5.1153   -2.2469 O.2     1  LIG1       -0.1499
      8 O           1.2300   -5.5546    0.1702 O.2     1  LIG1       -0.1499
      9 O           3.6486   -3.0118    1.7487 O.2     1  LIG1       -0.3364
     10 N           3.1444   -3.9564   -0.4479 N.pl3   1  LIG1       -0.1821
     11 N           4.0826   -3.4367    2.9929 N.ar    1  LIG1       -0.0798
     12 C           2.3697    0.7362    0.3837 C.ar    1  LIG1       -0.0333
     13 C           1.3224    0.2402   -0.5995 C.3     1  LIG1        0.0366
     14 C           2.0829    0.9426    1.7635 C.ar    1  LIG1       -0.0432
     15 C           0.3518   -3.5325   -0.9839 C.ar    1  LIG1        0.1261
     16 C           0.3711   -2.1426   -1.0004 C.ar    1  LIG1        0.0814
     17 C           3.6730    0.9787   -0.0979 C.ar    1  LIG1       -0.0123
     18 C           1.5094   -1.2320   -0.9758 C.2     1  LIG1        0.1759
     19 C           4.6368    1.4100    0.7862 C.ar    1  LIG1        0.1665
     20 C           4.3556    1.6201    2.1110 C.ar    1  LIG1        0.1665
     21 C           3.0963    1.4044    2.6259 C.ar    1  LIG1       -0.0130
     22 C           0.7081    0.7273    2.3388 C.3     1  LIG1       -0.0393
     23 C          -0.9835   -4.0529   -1.1201 C.ar    1  LIG1       -0.0273
     24 C           6.4454    2.0473    1.7775 C.3     1  LIG1        0.2332
     25 C          -1.9287   -3.0637   -1.2336 C.ar    1  LIG1       -0.0217
     26 C           3.5165   -4.0812    0.9155 C.ar    1  LIG1        0.2554
     27 C           3.9308   -5.2140    1.5806 C.ar    1  LIG1        0.1262
     28 C           4.2708   -4.7589    2.8768 C.ar    1  LIG1        0.1009
     29 C           4.8231   -5.5325    4.0130 C.3     1  LIG1       -0.0176
     30 H           3.2146   -2.9955   -0.8050 H       1  LIG1        0.1768
     31 H           0.3293    0.4392   -0.1950 H       1  LIG1        0.0394
     32 H           1.3866    0.8274   -1.5246 H       1  LIG1        0.0394
     33 H           3.9327    0.8183   -1.1403 H       1  LIG1        0.0658
     34 H           2.9077    1.5860    3.6794 H       1  LIG1        0.0658
     35 H           0.3067   -0.2440    2.0344 H       1  LIG1        0.0278
     36 H           0.0356    1.5250    2.0078 H       1  LIG1        0.0278
     37 H           0.7270    0.7347    3.4341 H       1  LIG1        0.0278
     38 H          -1.2235   -5.1111   -1.1455 H       1  LIG1        0.0643
     39 H           6.8791    3.0513    1.7068 H       1  LIG1        0.1166
     40 H           7.2359    1.3421    2.0602 H       1  LIG1        0.1166
     41 H          -2.9975   -3.1810   -1.3577 H       1  LIG1        0.0694
     42 H           4.6175   -5.0397    4.9687 H       1  LIG1        0.0294
     43 H           5.9085   -5.6326    3.9076 H       1  LIG1        0.0294
     44 H           4.3887   -6.5360    4.0570 H       1  LIG1        0.0294
@<TRIPOS>BOND
     1     1    27    1
     2     2    10    1
     3     2    15    1
     4     2     8    2
     5     2     7    2
     6     3    16   ar
     7     3    25   ar
     8     4    24    1
     9     4    19    1
    10     5    20    1
    11     5    24    1
    12     6    18    2
    13     9    11   ar
    14     9    26   ar
    15    10    26    1
    16    11    28   ar
    17    12    17   ar
    18    12    14   ar
    19    13    18    1
    20    13    12    1
    21    14    21   ar
    22    14    22    1
    23    15    23   ar
    24    15    16   ar
    25    16    18    1
    26    17    19   ar
    27    19    20   ar
    28    20    21   ar
    29    23    25   ar
    30    26    27   ar
    31    27    28   ar
    32    28    29    1
    33    10    30    1
    34    13    31    1
    35    13    32    1
    36    17    33    1
    37    21    34    1
    38    22    35    1
    39    22    36    1
    40    22    37    1
    41    23    38    1
    42    24    39    1
    43    24    40    1
    44    25    41    1
    45    29    42    1
    46    29    43    1
    47    29    44    1
@<TRIPOS>MOLECULE
46174111
 44 47 0 0 0
SMALL
GASTEIGER

@<TRIPOS>ATOM
      1 CL          2.1793   -8.6880    1.1871 Cl      1  LIG1       -0.0762
      2 S           1.5927   -4.5311   -0.7019 S.O2    1  LIG1        0.0758
      3 S          -1.3155   -1.5148   -1.4143 S.2     1  LIG1       -0.0918
      4 O           4.7080    3.4399    0.4034 O.3     1  LIG1       -0.4526
      5 O           5.9270    3.2945   -1.6735 O.3     1  LIG1       -0.4526
      6 O           2.5432   -1.7028   -0.7315 O.2     1  LIG1       -0.2911
      7 O           2.0516   -4.1209    0.6056 O.2     1  LIG1       -0.1499
      8 O           2.3972   -4.4348   -1.8992 O.2     1  LIG1       -0.1499
      9 O          -0.4428   -5.8283    1.2721 O.2     1  LIG1       -0.3364
     10 N           1.1402   -6.1593   -0.6008 N.pl3   1  LIG1       -0.1821
     11 N          -0.7457   -6.4350    2.4783 N.ar    1  LIG1       -0.0798
     12 C           2.4854    1.0479   -1.3075 C.ar    1  LIG1       -0.0333
     13 C           1.2101    0.2562   -1.0676 C.3     1  LIG1        0.0366
     14 C           3.2004    0.9726   -2.5385 C.ar    1  LIG1       -0.0432
     15 C           0.2160   -3.5294   -1.0406 C.ar    1  LIG1        0.1261
     16 C           0.2564   -2.1417   -1.1059 C.ar    1  LIG1        0.0814
     17 C           2.9620    1.8801   -0.2747 C.ar    1  LIG1       -0.0123
     18 C           1.4185   -1.2559   -0.9545 C.2     1  LIG1        0.1759
     19 C           4.1194    2.5975   -0.4876 C.ar    1  LIG1        0.1665
     20 C           4.8119    2.5164   -1.6685 C.ar    1  LIG1        0.1665
     21 C           4.3857    1.7142   -2.7035 C.ar    1  LIG1       -0.0130
     22 C           2.7882    0.0553   -3.6601 C.3     1  LIG1       -0.0393
     23 C          -1.0814   -4.0590   -1.3291 C.ar    1  LIG1       -0.0273
     24 C           5.8612    3.8664   -0.3513 C.3     1  LIG1        0.2332
     25 C          -2.0076   -3.0659   -1.5426 C.ar    1  LIG1       -0.0217
     26 C           0.5693   -6.5023    0.6593 C.ar    1  LIG1        0.2554
     27 C           0.9463   -7.5561    1.4566 C.ar    1  LIG1        0.1262
     28 C           0.1128   -7.4578    2.5947 C.ar    1  LIG1        0.1009
     29 C           0.1133   -8.2855    3.8222 C.3     1  LIG1       -0.0176
     30 H           1.9300   -6.7455   -0.8750 H       1  LIG1        0.1768
     31 H           0.7310    0.5899   -0.1385 H       1  LIG1        0.0394
     32 H           0.5266    0.4995   -1.8870 H       1  LIG1        0.0394
     33 H           2.4487    1.9587    0.6780 H       1  LIG1        0.0658
     34 H           4.9661    1.6563   -3.6187 H       1  LIG1        0.0658
     35 H           1.7037   -0.0703   -3.7111 H       1  LIG1        0.0278
     36 H           3.2563   -0.9254   -3.5303 H       1  LIG1        0.0278
     37 H           3.0978    0.4647   -4.6280 H       1  LIG1        0.0278
     38 H          -1.3320   -5.1126   -1.3682 H       1  LIG1        0.0643
     39 H           6.7659    3.5831    0.1991 H       1  LIG1        0.1166
     40 H           5.8343    4.9583   -0.4438 H       1  LIG1        0.1166
     41 H          -3.0606   -3.1788   -1.7656 H       1  LIG1        0.0694
     42 H          -0.8748   -8.2985    4.2935 H       1  LIG1        0.0294
     43 H           0.8311   -7.8830    4.5444 H       1  LIG1        0.0294
     44 H           0.3906   -9.3211    3.6033 H       1  LIG1        0.0294
@<TRIPOS>BOND
     1     1    27    1
     2     2    10    1
     3     2    15    1
     4     2     8    2
     5     2     7    2
     6     3    16   ar
     7     3    25   ar
     8     4    24    1
     9     4    19    1
    10     5    20    1
    11     5    24    1
    12     6    18    2
    13     9    11   ar
    14     9    26   ar
    15    10    26    1
    16    11    28   ar
    17    12    17   ar
    18    12    14   ar
    19    13    18    1
    20    13    12    1
    21    14    21   ar
    22    14    22    1
    23    15    23   ar
    24    15    16   ar
    25    16    18    1
    26    17    19   ar
    27    19    20   ar
    28    20    21   ar
    29    23    25   ar
    30    26    27   ar
    31    27    28   ar
    32    28    29    1
    33    10    30    1
    34    13    31    1
    35    13    32    1
    36    17    33    1
    37    21    34    1
    38    22    35    1
    39    22    36    1
    40    22    37    1
    41    23    38    1
    42    24    39    1
    43    24    40    1
    44    25    41    1
    45    29    42    1
    46    29    43    1
    47    29    44    1
@<TRIPOS>MOLECULE
46174111
 44 47 0 0 0
SMALL
GASTEIGER

@<TRIPOS>ATOM
      1 CL          1.6187   -7.1342    2.1768 Cl      1  LIG1       -0.0762
      2 S           1.5595   -4.5556   -0.7328 S.O2    1  LIG1        0.0758
      3 S          -1.3937   -1.5280   -1.2700 S.2     1  LIG1       -0.0918
      4 O           4.7182    3.3635    0.4097 O.3     1  LIG1       -0.4526
      5 O           5.9682    3.1209   -1.6391 O.3     1  LIG1       -0.4526
      6 O           2.2931   -1.6766   -0.0442 O.2     1  LIG1       -0.2911
      7 O           2.4689   -4.1243   -1.7713 O.2     1  LIG1       -0.1499
      8 O           1.0130   -5.8935   -0.7049 O.2     1  LIG1       -0.1499
      9 O           4.5494   -4.8034    1.1293 O.2     1  LIG1       -0.3364
     10 N           2.2120   -4.1542    0.7792 N.pl3   1  LIG1       -0.1821
     11 N           5.2743   -5.8815    1.6082 N.ar    1  LIG1       -0.0798
     12 C           2.4936    0.9281   -1.2404 C.ar    1  LIG1       -0.0333
     13 C           1.1721    0.2203   -1.0106 C.3     1  LIG1        0.0366
     14 C           3.2421    0.7713   -2.4415 C.ar    1  LIG1       -0.0432
     15 C           0.1660   -3.5384   -0.9897 C.ar    1  LIG1        0.1261
     16 C           0.1770   -2.1510   -0.9487 C.ar    1  LIG1        0.0814
     17 C           2.9699    1.7906   -0.2314 C.ar    1  LIG1       -0.0123
     18 C           1.2974   -1.2579   -0.6410 C.2     1  LIG1        0.1759
     19 C           4.1418    2.4820   -0.4506 C.ar    1  LIG1        0.1665
     20 C           4.8532    2.3434   -1.6139 C.ar    1  LIG1        0.1665
     21 C           4.4369    1.4978   -2.6180 C.ar    1  LIG1       -0.0130
     22 C           2.8315   -0.1447   -3.5645 C.3     1  LIG1       -0.0393
     23 C          -1.1221   -4.0696   -1.3188 C.ar    1  LIG1       -0.0273
     24 C           5.8737    3.7688   -0.3539 C.3     1  LIG1        0.2332
     25 C          -2.0587   -3.0801   -1.5001 C.ar    1  LIG1       -0.0217
     26 C           3.2176   -5.0841    1.1787 C.ar    1  LIG1        0.2554
     27 C           3.0476   -6.3246    1.7509 C.ar    1  LIG1        0.1262
     28 C           4.3640   -6.7901    1.9835 C.ar    1  LIG1        0.1009
     29 C           4.7949   -8.0753    2.5805 C.3     1  LIG1       -0.0176
     30 H           2.6339   -3.2187    0.6517 H       1  LIG1        0.1768
     31 H           0.6220    0.7116   -0.1977 H       1  LIG1        0.0394
     32 H           0.5697    0.3537   -1.9149 H       1  LIG1        0.0394
     33 H           2.4334    1.9286    0.7020 H       1  LIG1        0.0658
     34 H           5.0249    1.4037   -3.5259 H       1  LIG1        0.0658
     35 H           1.8839   -0.6550   -3.3826 H       1  LIG1        0.0278
     36 H           3.5953   -0.9153   -3.7124 H       1  LIG1        0.0278
     37 H           2.7197    0.4297   -4.4904 H       1  LIG1        0.0278
     38 H          -1.3462   -5.1265   -1.4203 H       1  LIG1        0.0643
     39 H           6.7761    3.5369    0.2233 H       1  LIG1        0.1166
     40 H           5.8262    4.8528   -0.5109 H       1  LIG1        0.1166
     41 H          -3.1039   -3.1973   -1.7552 H       1  LIG1        0.0694
     42 H           5.8859   -8.1675    2.5970 H       1  LIG1        0.0294
     43 H           4.3959   -8.9175    2.0062 H       1  LIG1        0.0294
     44 H           4.4348   -8.1581    3.6111 H       1  LIG1        0.0294
@<TRIPOS>BOND
     1     1    27    1
     2     2    10    1
     3     2    15    1
     4     2     8    2
     5     2     7    2
     6     3    16   ar
     7     3    25   ar
     8     4    24    1
     9     4    19    1
    10     5    20    1
    11     5    24    1
    12     6    18    2
    13     9    11   ar
    14     9    26   ar
    15    10    26    1
    16    11    28   ar
    17    12    17   ar
    18    12    14   ar
    19    13    18    1
    20    13    12    1
    21    14    21   ar
    22    14    22    1
    23    15    23   ar
    24    15    16   ar
    25    16    18    1
    26    17    19   ar
    27    19    20   ar
    28    20    21   ar
    29    23    25   ar
    30    26    27   ar
    31    27    28   ar
    32    28    29    1
    33    10    30    1
    34    13    31    1
    35    13    32    1
    36    17    33    1
    37    21    34    1
    38    22    35    1
    39    22    36    1
    40    22    37    1
    41    23    38    1
    42    24    39    1
    43    24    40    1
    44    25    41    1
    45    29    42    1
    46    29    43    1
    47    29    44    1
@<TRIPOS>MOLECULE
46174111
 44 47 0 0 0
SMALL
GASTEIGER

@<TRIPOS>ATOM
      1 CL         -0.8162   -5.4157    2.0874 Cl      1  LIG1       -0.0762
      2 S           1.4284   -4.7327   -0.7582 S.O2    1  LIG1        0.0758
      3 S          -1.2857   -1.5570   -1.5691 S.2     1  LIG1       -0.0918
      4 O           1.9436    0.8323    4.0123 O.3     1  LIG1       -0.4526
      5 O          -0.0608    2.1472    4.2742 O.3     1  LIG1       -0.4526
      6 O           2.4555   -1.8957   -0.4242 O.2     1  LIG1       -0.2911
      7 O           2.4352   -4.4323   -1.7516 O.2     1  LIG1       -0.1499
      8 O           0.7965   -6.0331   -0.7127 O.2     1  LIG1       -0.1499
      9 O           3.0339   -5.8962    2.3298 O.2     1  LIG1       -0.3364
     10 N           2.0339   -4.3082    0.7590 N.pl3   1  LIG1       -0.1821
     11 N           2.6277   -6.8551    3.2442 N.ar    1  LIG1       -0.0798
     12 C           0.8223    0.7250    0.4934 C.ar    1  LIG1       -0.0333
     13 C           1.2624    0.1171   -0.8266 C.3     1  LIG1        0.0366
     14 C          -0.3337    1.5432    0.6425 C.ar    1  LIG1       -0.0432
     15 C           0.1320   -3.6343   -1.1370 C.ar    1  LIG1        0.1261
     16 C           0.2217   -2.2480   -1.1164 C.ar    1  LIG1        0.0814
     17 C           1.6379    0.4761    1.6215 C.ar    1  LIG1       -0.0123
     18 C           1.3772   -1.4088   -0.7805 C.2     1  LIG1        0.1759
     19 C           1.2683    0.9919    2.8439 C.ar    1  LIG1        0.1665
     20 C           0.1328    1.7410    2.9918 C.ar    1  LIG1        0.1665
     21 C          -0.6834    2.0291    1.9213 C.ar    1  LIG1       -0.0130
     22 C          -1.2610    1.9081   -0.4873 C.3     1  LIG1       -0.0393
     23 C          -1.1680   -4.1030   -1.5156 C.ar    1  LIG1       -0.0273
     24 C           1.0987    1.5754    4.9150 C.3     1  LIG1        0.2332
     25 C          -2.0353   -3.0701   -1.7714 C.ar    1  LIG1       -0.0217
     26 C           1.9442   -5.3299    1.7409 C.ar    1  LIG1        0.2554
     27 C           0.8088   -5.8493    2.3231 C.ar    1  LIG1        0.1262
     28 C           1.2881   -6.8219    3.2310 C.ar    1  LIG1        0.1009
     29 C           0.5113   -7.7143    4.1209 C.3     1  LIG1       -0.0176
     30 H           2.9748   -3.9282    0.6223 H       1  LIG1        0.1768
     31 H           0.6538    0.4225   -1.6786 H       1  LIG1        0.0394
     32 H           2.2613    0.5127   -1.0598 H       1  LIG1        0.0394
     33 H           2.5490   -0.1115    1.5463 H       1  LIG1        0.0658
     34 H          -1.5748    2.6311    2.0713 H       1  LIG1        0.0658
     35 H          -0.7679    1.8955   -1.4603 H       1  LIG1        0.0278
     36 H          -1.6358    2.9289   -0.3542 H       1  LIG1        0.0278
     37 H          -2.1175    1.2292   -0.5028 H       1  LIG1        0.0278
     38 H          -1.4496   -5.1478   -1.5914 H       1  LIG1        0.0643
     39 H           1.6876    2.3855    5.3608 H       1  LIG1        0.1166
     40 H           0.7632    0.9037    5.7136 H       1  LIG1        0.1166
     41 H          -3.0732   -3.1357   -2.0708 H       1  LIG1        0.0694
     42 H           1.1184   -8.5529    4.4783 H       1  LIG1        0.0294
     43 H          -0.3529   -8.1332    3.5947 H       1  LIG1        0.0294
     44 H           0.1480   -7.1598    4.9923 H       1  LIG1        0.0294
@<TRIPOS>BOND
     1     1    27    1
     2     2    10    1
     3     2    15    1
     4     2     8    2
     5     2     7    2
     6     3    16   ar
     7     3    25   ar
     8     4    24    1
     9     4    19    1
    10     5    20    1
    11     5    24    1
    12     6    18    2
    13     9    11   ar
    14     9    26   ar
    15    10    26    1
    16    11    28   ar
    17    12    17   ar
    18    12    14   ar
    19    13    18    1
    20    13    12    1
    21    14    21   ar
    22    14    22    1
    23    15    23   ar
    24    15    16   ar
    25    16    18    1
    26    17    19   ar
    27    19    20   ar
    28    20    21   ar
    29    23    25   ar
    30    26    27   ar
    31    27    28   ar
    32    28    29    1
    33    10    30    1
    34    13    31    1
    35    13    32    1
    36    17    33    1
    37    21    34    1
    38    22    35    1
    39    22    36    1
    40    22    37    1
    41    23    38    1
    42    24    39    1
    43    24    40    1
    44    25    41    1
    45    29    42    1
    46    29    43    1
    47    29    44    1
@<TRIPOS>MOLECULE
46174111
 44 47 0 0 0
SMALL
GASTEIGER

@<TRIPOS>ATOM
      1 CL         -0.8186   -5.4688    2.0155 Cl      1  LIG1       -0.0762
      2 S           1.4460   -4.5052   -0.7097 S.O2    1  LIG1        0.0758
      3 S          -1.4374   -1.4253   -1.2855 S.2     1  LIG1       -0.0918
      4 O           4.9010    1.6072   -4.0166 O.3     1  LIG1       -0.4526
      5 O           5.8785    3.0598   -2.3572 O.3     1  LIG1       -0.4526
      6 O           2.2692   -1.5902   -0.0983 O.2     1  LIG1       -0.2911
      7 O           2.4284   -4.0625   -1.6745 O.2     1  LIG1       -0.1499
      8 O           0.8956   -5.8419   -0.7699 O.2     1  LIG1       -0.1499
      9 O           3.0402   -5.7628    2.3846 O.2     1  LIG1       -0.3364
     10 N           2.0287   -4.1677    0.8329 N.pl3   1  LIG1       -0.1821
     11 N           2.6499   -6.7625    3.2596 N.ar    1  LIG1       -0.0798
     12 C           2.4529    1.0051   -1.3279 C.ar    1  LIG1       -0.0333
     13 C           1.1391    0.2807   -1.1031 C.3     1  LIG1        0.0366
     14 C           3.0510    1.8320   -0.3362 C.ar    1  LIG1       -0.0432
     15 C           0.0870   -3.4604   -1.0025 C.ar    1  LIG1        0.1261
     16 C           0.1284   -2.0735   -0.9722 C.ar    1  LIG1        0.0814
     17 C           3.0688    0.8727   -2.5895 C.ar    1  LIG1       -0.0123
     18 C           1.2655   -1.1875   -0.6896 C.2     1  LIG1        0.1759
     19 C           4.2141    1.5944   -2.8433 C.ar    1  LIG1        0.1665
     20 C           4.7700    2.4188   -1.8995 C.ar    1  LIG1        0.1665
     21 C           4.2198    2.5552   -0.6436 C.ar    1  LIG1       -0.0130
     22 C           2.4412    2.0097    1.0281 C.3     1  LIG1       -0.0393
     23 C          -1.2098   -3.9683   -1.3373 C.ar    1  LIG1       -0.0273
     24 C           5.9473    2.5501   -3.7053 C.3     1  LIG1        0.2332
     25 C          -2.1292   -2.9639   -1.5178 C.ar    1  LIG1       -0.0217
     26 C           1.9464   -5.2326    1.7684 C.ar    1  LIG1        0.2554
     27 C           0.8181   -5.8265    2.2909 C.ar    1  LIG1        0.1262
     28 C           1.3119   -6.7931    3.1990 C.ar    1  LIG1        0.1009
     29 C           0.5485   -7.7328    4.0525 C.3     1  LIG1       -0.0176
     30 H           2.9558   -3.7440    0.7420 H       1  LIG1        0.1768
     31 H           0.5370    0.7999   -0.3495 H       1  LIG1        0.0394
     32 H           0.5826    0.3499   -2.0458 H       1  LIG1        0.0394
     33 H           2.6501    0.2392   -3.3652 H       1  LIG1        0.0658
     34 H           4.6848    3.2166    0.0805 H       1  LIG1        0.0658
     35 H           2.1200    1.0488    1.4415 H       1  LIG1        0.0278
     36 H           1.5845    2.6882    0.9697 H       1  LIG1        0.0278
     37 H           3.1647    2.4319    1.7342 H       1  LIG1        0.0278
     38 H          -1.4539   -5.0212   -1.4343 H       1  LIG1        0.0643
     39 H           5.8757    3.3933   -4.4024 H       1  LIG1        0.1166
     40 H           6.9168    2.0592   -3.8464 H       1  LIG1        0.1166
     41 H          -3.1767   -3.0639   -1.7707 H       1  LIG1        0.0694
     42 H           1.1793   -8.5530    4.4104 H       1  LIG1        0.0294
     43 H          -0.2858   -8.1745    3.4979 H       1  LIG1        0.0294
     44 H           0.1431   -7.2087    4.9240 H       1  LIG1        0.0294
@<TRIPOS>BOND
     1     1    27    1
     2     2    10    1
     3     2    15    1
     4     2     8    2
     5     2     7    2
     6     3    16   ar
     7     3    25   ar
     8     4    24    1
     9     4    19    1
    10     5    20    1
    11     5    24    1
    12     6    18    2
    13     9    11   ar
    14     9    26   ar
    15    10    26    1
    16    11    28   ar
    17    12    17   ar
    18    12    14   ar
    19    13    18    1
    20    13    12    1
    21    14    21   ar
    22    14    22    1
    23    15    23   ar
    24    15    16   ar
    25    16    18    1
    26    17    19   ar
    27    19    20   ar
    28    20    21   ar
    29    23    25   ar
    30    26    27   ar
    31    27    28   ar
    32    28    29    1
    33    10    30    1
    34    13    31    1
    35    13    32    1
    36    17    33    1
    37    21    34    1
    38    22    35    1
    39    22    36    1
    40    22    37    1
    41    23    38    1
    42    24    39    1
    43    24    40    1
    44    25    41    1
    45    29    42    1
    46    29    43    1
    47    29    44    1
@<TRIPOS>MOLECULE
46174111
 44 47 0 0 0
SMALL
GASTEIGER

@<TRIPOS>ATOM
      1 CL          3.2072   -1.7472    2.4110 Cl      1  LIG1       -0.0762
      2 S           1.7650   -4.5761   -0.8876 S.O2    1  LIG1        0.0758
      3 S          -1.3259   -1.5963   -1.0982 S.2     1  LIG1       -0.0918
      4 O           4.1403    2.6909   -3.8521 O.3     1  LIG1       -0.4526
      5 O           5.3633    3.7595   -2.0688 O.3     1  LIG1       -0.4526
      6 O           2.5710   -1.5196   -0.8815 O.2     1  LIG1       -0.2911
      7 O           2.1204   -4.6998   -2.2824 O.2     1  LIG1       -0.1499
      8 O           1.2656   -5.7049   -0.1296 O.2     1  LIG1       -0.1499
      9 O           3.4478   -5.5446    1.6571 O.2     1  LIG1       -0.3364
     10 N           3.0346   -3.8478   -0.0843 N.pl3   1  LIG1       -0.1821
     11 N           3.7297   -5.5676    3.0153 N.ar    1  LIG1       -0.0798
     12 C           2.2375    1.2661   -1.0303 C.ar    1  LIG1       -0.0333
     13 C           1.0528    0.3415   -0.8053 C.3     1  LIG1        0.0366
     14 C           2.9687    1.8838    0.0233 C.ar    1  LIG1       -0.0432
     15 C           0.3596   -3.5265   -0.9677 C.ar    1  LIG1        0.1261
     16 C           0.3096   -2.1348   -0.9703 C.ar    1  LIG1        0.0814
     17 C           2.6176    1.5037   -2.3685 C.ar    1  LIG1       -0.0123
     18 C           1.3951   -1.1512   -0.9028 C.2     1  LIG1        0.1759
     19 C           3.6747    2.3501   -2.6202 C.ar    1  LIG1        0.1665
     20 C           4.3675    2.9560   -1.6107 C.ar    1  LIG1        0.1665
     21 C           4.0440    2.7461   -0.2871 C.ar    1  LIG1       -0.0130
     22 C           2.6368    1.7273    1.4818 C.3     1  LIG1       -0.0393
     23 C          -0.9424   -4.1133   -1.1471 C.ar    1  LIG1       -0.0273
     24 C           5.2083    3.5921   -3.4936 C.3     1  LIG1        0.2332
     25 C          -1.9385   -3.1741   -1.2433 C.ar    1  LIG1       -0.0217
     26 C           3.2658   -4.2580    1.2480 C.ar    1  LIG1        0.2554
     27 C           3.4027   -3.4271    2.3333 C.ar    1  LIG1        0.1262
     28 C           3.6858   -4.2898    3.4144 C.ar    1  LIG1        0.1009
     29 C           3.8906   -3.9477    4.8396 C.3     1  LIG1       -0.0176
     30 H           3.1291   -2.8474   -0.2980 H       1  LIG1        0.1768
     31 H           0.5818    0.5330    0.1634 H       1  LIG1        0.0394
     32 H           0.3098    0.5972   -1.5697 H       1  LIG1        0.0394
     33 H           2.0926    1.0416   -3.1989 H       1  LIG1        0.0658
     34 H           4.6111    3.2437    0.4925 H       1  LIG1        0.0658
     35 H           1.9948    0.8688    1.6819 H       1  LIG1        0.0278
     36 H           2.1318    2.6276    1.8471 H       1  LIG1        0.0278
     37 H           3.5528    1.5782    2.0654 H       1  LIG1        0.0278
     38 H          -1.1259   -5.1812   -1.2133 H       1  LIG1        0.0643
     39 H           5.0034    4.5716   -3.9409 H       1  LIG1        0.1166
     40 H           6.1471    3.2060   -3.9070 H       1  LIG1        0.1166
     41 H          -2.9972   -3.3450   -1.3903 H       1  LIG1        0.0694
     42 H           4.5486   -4.6703    5.3325 H       1  LIG1        0.0294
     43 H           2.9296   -3.9422    5.3637 H       1  LIG1        0.0294
     44 H           4.3449   -2.9578    4.9491 H       1  LIG1        0.0294
@<TRIPOS>BOND
     1     1    27    1
     2     2    10    1
     3     2    15    1
     4     2     8    2
     5     2     7    2
     6     3    16   ar
     7     3    25   ar
     8     4    24    1
     9     4    19    1
    10     5    20    1
    11     5    24    1
    12     6    18    2
    13     9    11   ar
    14     9    26   ar
    15    10    26    1
    16    11    28   ar
    17    12    17   ar
    18    12    14   ar
    19    13    18    1
    20    13    12    1
    21    14    21   ar
    22    14    22    1
    23    15    23   ar
    24    15    16   ar
    25    16    18    1
    26    17    19   ar
    27    19    20   ar
    28    20    21   ar
    29    23    25   ar
    30    26    27   ar
    31    27    28   ar
    32    28    29    1
    33    10    30    1
    34    13    31    1
    35    13    32    1
    36    17    33    1
    37    21    34    1
    38    22    35    1
    39    22    36    1
    40    22    37    1
    41    23    38    1
    42    24    39    1
    43    24    40    1
    44    25    41    1
    45    29    42    1
    46    29    43    1
    47    29    44    1
@<TRIPOS>MOLECULE
46174111
 44 47 0 0 0
SMALL
GASTEIGER

@<TRIPOS>ATOM
      1 CL          3.0131   -8.8370   -1.4604 Cl      1  LIG1       -0.0762
      2 S           1.6547   -4.5427   -0.7500 S.O2    1  LIG1        0.0758
      3 S          -1.1630   -1.4927   -1.6495 S.2     1  LIG1       -0.0918
      4 O           4.7021    3.4124    0.7452 O.3     1  LIG1       -0.4526
      5 O           5.1802    2.4570    2.9085 O.3     1  LIG1       -0.4526
      6 O           2.6341   -1.6424   -0.9093 O.2     1  LIG1       -0.2911
      7 O           1.8433   -4.2461    0.6541 O.2     1  LIG1       -0.1499
      8 O           2.6703   -4.3140   -1.7516 O.2     1  LIG1       -0.1499
      9 O           0.7871   -6.2069   -3.2464 O.2     1  LIG1       -0.3364
     10 N           1.2198   -6.1799   -0.8098 N.pl3   1  LIG1       -0.1821
     11 N           1.1439   -6.9703   -4.3443 N.ar    1  LIG1       -0.0798
     12 C           2.2110    0.6968    0.6470 C.ar    1  LIG1       -0.0333
     13 C           1.1443    0.1210   -0.2687 C.3     1  LIG1        0.0366
     14 C           2.4849    0.1432    1.9314 C.ar    1  LIG1       -0.0432
     15 C           0.3163   -3.5359   -1.2011 C.ar    1  LIG1        0.1261
     16 C           0.3471   -2.1493   -1.1598 C.ar    1  LIG1        0.0814
     17 C           2.9417    1.8166    0.2016 C.ar    1  LIG1       -0.0123
     18 C           1.4650   -1.2773   -0.7944 C.2     1  LIG1        0.1759
     19 C           3.9133    2.3409    1.0265 C.ar    1  LIG1        0.1665
     20 C           4.1844    1.7992    2.2568 C.ar    1  LIG1        0.1665
     21 C           3.4979    0.7044    2.7320 C.ar    1  LIG1       -0.0130
     22 C           1.7906   -1.0889    2.4497 C.3     1  LIG1       -0.0393
     23 C          -0.9676   -4.0447   -1.5731 C.ar    1  LIG1       -0.0273
     24 C           5.5096    3.4727    1.9392 C.3     1  LIG1        0.2332
     25 C          -1.8603   -3.0359   -1.8532 C.ar    1  LIG1       -0.0217
     26 C           1.3521   -6.7265   -2.1215 C.ar    1  LIG1        0.2554
     27 C           2.0835   -7.8378   -2.4657 C.ar    1  LIG1        0.1262
     28 C           1.9516   -7.9293   -3.8707 C.ar    1  LIG1        0.1009
     29 C           2.5961   -8.8833   -4.8016 C.3     1  LIG1       -0.0176
     30 H           1.7503   -6.6869   -0.0994 H       1  LIG1        0.1768
     31 H           0.2020    0.1214    0.2898 H       1  LIG1        0.0394
     32 H           1.0020    0.7719   -1.1406 H       1  LIG1        0.0394
     33 H           2.7656    2.2628   -0.7717 H       1  LIG1        0.0658
     34 H           3.7483    0.2864    3.7018 H       1  LIG1        0.0658
     35 H           0.7626   -1.1654    2.0863 H       1  LIG1        0.0278
     36 H           1.7321   -1.0693    3.5434 H       1  LIG1        0.0278
     37 H           2.3475   -1.9805    2.1481 H       1  LIG1        0.0278
     38 H          -1.2312   -5.0936   -1.6370 H       1  LIG1        0.0643
     39 H           5.3737    4.4561    2.4041 H       1  LIG1        0.1166
     40 H           6.5630    3.3603    1.6573 H       1  LIG1        0.1166
     41 H          -2.8916   -3.1319   -2.1672 H       1  LIG1        0.0694
     42 H           2.0760   -8.9175   -5.7645 H       1  LIG1        0.0294
     43 H           2.5998   -9.8959   -4.3873 H       1  LIG1        0.0294
     44 H           3.6328   -8.5828   -4.9866 H       1  LIG1        0.0294
@<TRIPOS>BOND
     1     1    27    1
     2     2    10    1
     3     2    15    1
     4     2     8    2
     5     2     7    2
     6     3    16   ar
     7     3    25   ar
     8     4    24    1
     9     4    19    1
    10     5    20    1
    11     5    24    1
    12     6    18    2
    13     9    11   ar
    14     9    26   ar
    15    10    26    1
    16    11    28   ar
    17    12    17   ar
    18    12    14   ar
    19    13    18    1
    20    13    12    1
    21    14    21   ar
    22    14    22    1
    23    15    23   ar
    24    15    16   ar
    25    16    18    1
    26    17    19   ar
    27    19    20   ar
    28    20    21   ar
    29    23    25   ar
    30    26    27   ar
    31    27    28   ar
    32    28    29    1
    33    10    30    1
    34    13    31    1
    35    13    32    1
    36    17    33    1
    37    21    34    1
    38    22    35    1
    39    22    36    1
    40    22    37    1
    41    23    38    1
    42    24    39    1
    43    24    40    1
    44    25    41    1
    45    29    42    1
    46    29    43    1
    47    29    44    1
@<TRIPOS>MOLECULE
46174111
 44 47 0 0 0
SMALL
GASTEIGER

@<TRIPOS>ATOM
      1 CL          4.1614   -6.8484    1.0043 Cl      1  LIG1       -0.0762
      2 S           1.7082   -4.7179   -0.8542 S.O2    1  LIG1        0.0758
      3 S          -1.2124   -1.5748   -1.1307 S.2     1  LIG1       -0.0918
      4 O           1.3806    1.4319   -5.3193 O.3     1  LIG1       -0.4526
      5 O           0.8532    3.7424   -4.8734 O.3     1  LIG1       -0.4526
      6 O           2.6619   -1.6467   -1.0956 O.2     1  LIG1       -0.2911
      7 O           1.8221   -5.1874   -2.2190 O.2     1  LIG1       -0.1499
      8 O           1.2534   -5.5920    0.2062 O.2     1  LIG1       -0.1499
      9 O           3.6852   -3.0637    1.7520 O.2     1  LIG1       -0.3364
     10 N           3.1723   -4.0099   -0.4401 N.pl3   1  LIG1       -0.1821
     11 N           4.1257   -3.4840    2.9945 N.ar    1  LIG1       -0.0798
     12 C           1.1569    1.1732   -1.6451 C.ar    1  LIG1       -0.0333
     13 C           1.2877    0.1934   -0.4907 C.3     1  LIG1        0.0366
     14 C           0.8686    2.5477   -1.3866 C.ar    1  LIG1       -0.0432
     15 C           0.3785   -3.5843   -0.9755 C.ar    1  LIG1        0.1261
     16 C           0.3878   -2.1951   -0.9517 C.ar    1  LIG1        0.0814
     17 C           1.3518    0.7573   -2.9787 C.ar    1  LIG1       -0.0123
     18 C           1.5110   -1.2681   -0.8620 C.2     1  LIG1        0.1759
     19 C           1.2284    1.6849   -3.9919 C.ar    1  LIG1        0.1665
     20 C           0.9297    2.9974   -3.7393 C.ar    1  LIG1        0.1665
     21 C           0.7426    3.4572   -2.4563 C.ar    1  LIG1       -0.0130
     22 C           0.6430    3.0912    0.0016 C.3     1  LIG1       -0.0393
     23 C          -0.9502   -4.1080   -1.1611 C.ar    1  LIG1       -0.0273
     24 C           1.1456    2.7433   -5.8726 C.3     1  LIG1        0.2332
     25 C          -1.9007   -3.1231   -1.2623 C.ar    1  LIG1       -0.0217
     26 C           3.5535   -4.1349    0.9214 C.ar    1  LIG1        0.2554
     27 C           3.9722   -5.2653    1.5865 C.ar    1  LIG1        0.1262
     28 C           4.3156   -4.8064    2.8809 C.ar    1  LIG1        0.1009
     29 C           4.8724   -5.5755    4.0177 C.3     1  LIG1       -0.0176
     30 H           3.2316   -3.0438   -0.7849 H       1  LIG1        0.1768
     31 H           2.1629    0.4887    0.1042 H       1  LIG1        0.0394
     32 H           0.4250    0.2733    0.1795 H       1  LIG1        0.0394
     33 H           1.6024   -0.2637   -3.2475 H       1  LIG1        0.0658
     34 H           0.5089    4.5034   -2.2847 H       1  LIG1        0.0658
     35 H           1.0668    2.4522    0.7801 H       1  LIG1        0.0278
     36 H          -0.4300    3.2029    0.1863 H       1  LIG1        0.0278
     37 H           1.1250    4.0695    0.1077 H       1  LIG1        0.0278
     38 H          -1.1821   -5.1666   -1.2240 H       1  LIG1        0.0643
     39 H           0.2997    2.6842   -6.5672 H       1  LIG1        0.1166
     40 H           2.0372    3.0539   -6.4295 H       1  LIG1        0.1166
     41 H          -2.9660   -3.2436   -1.4120 H       1  LIG1        0.0694
     42 H           4.6635   -5.0827    4.9729 H       1  LIG1        0.0294
     43 H           5.9583   -5.6689    3.9126 H       1  LIG1        0.0294
     44 H           4.4437   -6.5814    4.0628 H       1  LIG1        0.0294
@<TRIPOS>BOND
     1     1    27    1
     2     2    10    1
     3     2    15    1
     4     2     8    2
     5     2     7    2
     6     3    16   ar
     7     3    25   ar
     8     4    24    1
     9     4    19    1
    10     5    20    1
    11     5    24    1
    12     6    18    2
    13     9    11   ar
    14     9    26   ar
    15    10    26    1
    16    11    28   ar
    17    12    17   ar
    18    12    14   ar
    19    13    18    1
    20    13    12    1
    21    14    21   ar
    22    14    22    1
    23    15    23   ar
    24    15    16   ar
    25    16    18    1
    26    17    19   ar
    27    19    20   ar
    28    20    21   ar
    29    23    25   ar
    30    26    27   ar
    31    27    28   ar
    32    28    29    1
    33    10    30    1
    34    13    31    1
    35    13    32    1
    36    17    33    1
    37    21    34    1
    38    22    35    1
    39    22    36    1
    40    22    37    1
    41    23    38    1
    42    24    39    1
    43    24    40    1
    44    25    41    1
    45    29    42    1
    46    29    43    1
    47    29    44    1
@<TRIPOS>MOLECULE
46174111
 44 47 0 0 0
SMALL
GASTEIGER

@<TRIPOS>ATOM
      1 CL          2.2513   -4.2792    3.2247 Cl      1  LIG1       -0.0762
      2 S           1.5883   -4.5180   -0.6439 S.O2    1  LIG1        0.0758
      3 S          -1.2305   -1.4658   -1.6292 S.2     1  LIG1       -0.0918
      4 O           4.7056   -0.6272    2.9661 O.3     1  LIG1       -0.4526
      5 O           5.4116    1.6792    3.0083 O.3     1  LIG1       -0.4526
      6 O           2.5713   -1.5764   -1.5806 O.2     1  LIG1       -0.2911
      7 O           2.0507   -4.9918   -1.9282 O.2     1  LIG1       -0.1499
      8 O           1.0121   -5.4027    0.3449 O.2     1  LIG1       -0.1499
      9 O           4.9235   -4.7848    0.4493 O.2     1  LIG1       -0.3364
     10 N           2.8158   -3.5912    0.0463 N.pl3   1  LIG1       -0.1821
     11 N           5.5598   -5.4372    1.4932 N.ar    1  LIG1       -0.0798
     12 C           2.3892    0.6370    0.3876 C.ar    1  LIG1       -0.0333
     13 C           1.2731    0.1710   -0.5361 C.3     1  LIG1        0.0366
     14 C           2.7694    2.0091    0.4581 C.ar    1  LIG1       -0.0432
     15 C           0.2582   -3.4756   -1.0637 C.ar    1  LIG1        0.1261
     16 C           0.3143   -2.1012   -1.2230 C.ar    1  LIG1        0.0814
     17 C           2.9970   -0.2836    1.2647 C.ar    1  LIG1       -0.0123
     18 C           1.4704   -1.2161   -1.1560 C.2     1  LIG1        0.1759
     19 C           4.0061    0.1495    2.0967 C.ar    1  LIG1        0.1665
     20 C           4.4052    1.4592    2.1214 C.ar    1  LIG1        0.1665
     21 C           3.8052    2.4097    1.3259 C.ar    1  LIG1       -0.0130
     22 C           2.1098    3.0639   -0.3911 C.3     1  LIG1       -0.0393
     23 C          -1.0607   -3.9945   -1.2727 C.ar    1  LIG1       -0.0273
     24 C           5.6210    0.3441    3.5148 C.3     1  LIG1        0.2332
     25 C          -1.9645   -3.0054   -1.5826 C.ar    1  LIG1       -0.0217
     26 C           3.6959   -4.3619    0.8549 C.ar    1  LIG1        0.2554
     27 C           3.5297   -4.6788    2.1829 C.ar    1  LIG1        0.1262
     28 C           4.7197   -5.3563    2.5351 C.ar    1  LIG1        0.1009
     29 C           5.1135   -5.9008    3.8542 C.3     1  LIG1       -0.0176
     30 H           3.3201   -3.1625   -0.7447 H       1  LIG1        0.1768
     31 H           0.3529    0.2003    0.0572 H       1  LIG1        0.0394
     32 H           1.1568    0.8540   -1.3846 H       1  LIG1        0.0394
     33 H           2.7001   -1.3238    1.3048 H       1  LIG1        0.0658
     34 H           4.1301    3.4437    1.3829 H       1  LIG1        0.0658
     35 H           1.0208    2.9559   -0.3672 H       1  LIG1        0.0278
     36 H           2.4650    2.9928   -1.4233 H       1  LIG1        0.0278
     37 H           2.3329    4.0703   -0.0198 H       1  LIG1        0.0278
     38 H          -1.3256   -5.0437   -1.1933 H       1  LIG1        0.0643
     39 H           6.6455    0.0349    3.2766 H       1  LIG1        0.1166
     40 H           5.5027    0.3595    4.6040 H       1  LIG1        0.1166
     41 H          -3.0213   -3.1151   -1.7884 H       1  LIG1        0.0694
     42 H           5.9580   -6.5924    3.7679 H       1  LIG1        0.0294
     43 H           4.2832   -6.4448    4.3157 H       1  LIG1        0.0294
     44 H           5.4079   -5.0873    4.5256 H       1  LIG1        0.0294
@<TRIPOS>BOND
     1     1    27    1
     2     2    10    1
     3     2    15    1
     4     2     8    2
     5     2     7    2
     6     3    16   ar
     7     3    25   ar
     8     4    24    1
     9     4    19    1
    10     5    20    1
    11     5    24    1
    12     6    18    2
    13     9    11   ar
    14     9    26   ar
    15    10    26    1
    16    11    28   ar
    17    12    17   ar
    18    12    14   ar
    19    13    18    1
    20    13    12    1
    21    14    21   ar
    22    14    22    1
    23    15    23   ar
    24    15    16   ar
    25    16    18    1
    26    17    19   ar
    27    19    20   ar
    28    20    21   ar
    29    23    25   ar
    30    26    27   ar
    31    27    28   ar
    32    28    29    1
    33    10    30    1
    34    13    31    1
    35    13    32    1
    36    17    33    1
    37    21    34    1
    38    22    35    1
    39    22    36    1
    40    22    37    1
    41    23    38    1
    42    24    39    1
    43    24    40    1
    44    25    41    1
    45    29    42    1
    46    29    43    1
    47    29    44    1
@<TRIPOS>MOLECULE
46174111
 44 47 0 0 0
SMALL
GASTEIGER

@<TRIPOS>ATOM
      1 CL         -1.1115   -3.7487    1.9428 Cl      1  LIG1       -0.0762
      2 S           1.3951   -4.6803   -0.7000 S.O2    1  LIG1        0.0758
      3 S          -1.2371   -1.5156   -1.7802 S.2     1  LIG1       -0.0918
      4 O           1.9011    0.7317    4.0030 O.3     1  LIG1       -0.4526
      5 O          -0.0765    2.0825    4.2854 O.3     1  LIG1       -0.4526
      6 O           2.4844   -1.8266   -0.5760 O.2     1  LIG1       -0.2911
      7 O           2.4361   -4.5114   -1.6891 O.2     1  LIG1       -0.1499
      8 O           0.7143   -5.9512   -0.5600 O.2     1  LIG1       -0.1499
      9 O           2.1295   -5.7595    2.6895 O.2     1  LIG1       -0.3364
     10 N           2.0086   -4.2088    0.8018 N.pl3   1  LIG1       -0.1821
     11 N           1.3034   -6.2801    3.6713 N.ar    1  LIG1       -0.0798
     12 C           0.7940    0.7254    0.4787 C.ar    1  LIG1       -0.0333
     13 C           1.2408    0.1742   -0.8635 C.3     1  LIG1        0.0366
     14 C          -0.3497    1.5584    0.6432 C.ar    1  LIG1       -0.0432
     15 C           0.1483   -3.5823   -1.2097 C.ar    1  LIG1        0.1261
     16 C           0.2443   -2.1967   -1.2333 C.ar    1  LIG1        0.0814
     17 C           1.5966    0.4297    1.6038 C.ar    1  LIG1       -0.0123
     18 C           1.3864   -1.3486   -0.8826 C.2     1  LIG1        0.1759
     19 C           1.2314    0.9253    2.8361 C.ar    1  LIG1        0.1665
     20 C           0.1104    1.6948    2.9961 C.ar    1  LIG1        0.1665
     21 C          -0.6976    2.0205    1.9302 C.ar    1  LIG1       -0.0130
     22 C          -1.2583    1.9578   -0.4894 C.3     1  LIG1       -0.0393
     23 C          -1.1264   -4.0584   -1.6628 C.ar    1  LIG1       -0.0273
     24 C           1.0773    1.4873    4.9149 C.3     1  LIG1        0.2332
     25 C          -1.9771   -3.0320   -1.9890 C.ar    1  LIG1       -0.0217
     26 C           1.4280   -4.8929    1.9061 C.ar    1  LIG1        0.2554
     27 C           0.1534   -4.7752    2.4129 C.ar    1  LIG1        0.1262
     28 C           0.1163   -5.6849    3.4959 C.ar    1  LIG1        0.1009
     29 C          -1.0147   -5.9917    4.4016 C.3     1  LIG1       -0.0176
     30 H           3.0245   -4.3048    0.7592 H       1  LIG1        0.1768
     31 H           0.6213    0.5030   -1.6991 H       1  LIG1        0.0394
     32 H           2.2290    0.6014   -1.0843 H       1  LIG1        0.0394
     33 H           2.4991   -0.1704    1.5177 H       1  LIG1        0.0658
     34 H          -1.5772    2.6365    2.0913 H       1  LIG1        0.0658
     35 H          -0.7128    2.1007   -1.4250 H       1  LIG1        0.0278
     36 H          -1.7442    2.9167   -0.2753 H       1  LIG1        0.0278
     37 H          -2.0408    1.2069   -0.6264 H       1  LIG1        0.0278
     38 H          -1.4061   -5.1049   -1.7271 H       1  LIG1        0.0643
     39 H           1.6847    2.2849    5.3586 H       1  LIG1        0.1166
     40 H           0.7356    0.8196    5.7140 H       1  LIG1        0.1166
     41 H          -2.9976   -3.1051   -2.3413 H       1  LIG1        0.0694
     42 H          -0.8487   -6.9243    4.9503 H       1  LIG1        0.0294
     43 H          -1.9462   -6.1017    3.8366 H       1  LIG1        0.0294
     44 H          -1.1471   -5.1849    5.1294 H       1  LIG1        0.0294
@<TRIPOS>BOND
     1     1    27    1
     2     2    10    1
     3     2    15    1
     4     2     8    2
     5     2     7    2
     6     3    16   ar
     7     3    25   ar
     8     4    24    1
     9     4    19    1
    10     5    20    1
    11     5    24    1
    12     6    18    2
    13     9    11   ar
    14     9    26   ar
    15    10    26    1
    16    11    28   ar
    17    12    17   ar
    18    12    14   ar
    19    13    18    1
    20    13    12    1
    21    14    21   ar
    22    14    22    1
    23    15    23   ar
    24    15    16   ar
    25    16    18    1
    26    17    19   ar
    27    19    20   ar
    28    20    21   ar
    29    23    25   ar
    30    26    27   ar
    31    27    28   ar
    32    28    29    1
    33    10    30    1
    34    13    31    1
    35    13    32    1
    36    17    33    1
    37    21    34    1
    38    22    35    1
    39    22    36    1
    40    22    37    1
    41    23    38    1
    42    24    39    1
    43    24    40    1
    44    25    41    1
    45    29    42    1
    46    29    43    1
    47    29    44    1
@<TRIPOS>MOLECULE
46174111
 44 47 0 0 0
SMALL
GASTEIGER

@<TRIPOS>ATOM
      1 CL          0.8530   -6.0817   -4.1326 Cl      1  LIG1       -0.0762
      2 S           1.4047   -4.6442   -0.7523 S.O2    1  LIG1        0.0758
      3 S          -1.1940   -1.4107   -1.6898 S.2     1  LIG1       -0.0918
      4 O           1.4556   -0.9608    4.3768 O.3     1  LIG1       -0.4526
      5 O           3.1650    0.6740    4.8488 O.3     1  LIG1       -0.4526
      6 O           2.6128   -1.8298   -1.1063 O.2     1  LIG1       -0.2911
      7 O           0.8007   -5.9512   -0.8865 O.2     1  LIG1       -0.1499
      8 O           1.8607   -4.1588    0.5318 O.2     1  LIG1       -0.1499
      9 O           4.3288   -6.1223   -2.3923 O.2     1  LIG1       -0.3364
     10 N           2.6434   -4.4244   -1.8735 N.pl3   1  LIG1       -0.1821
     11 N           4.4581   -7.2536   -3.1814 N.ar    1  LIG1       -0.0798
     12 C           1.8974    0.2962    0.9371 C.ar    1  LIG1       -0.0333
     13 C           1.3396    0.0808   -0.4580 C.3     1  LIG1        0.0366
     14 C           2.8822    1.2843    1.2241 C.ar    1  LIG1       -0.0432
     15 C           0.1366   -3.5311   -1.1780 C.ar    1  LIG1        0.1261
     16 C           0.2790   -2.1536   -1.2085 C.ar    1  LIG1        0.0814
     17 C           1.3717   -0.4840    1.9895 C.ar    1  LIG1       -0.0123
     18 C           1.4818   -1.3604   -0.9460 C.2     1  LIG1        0.1759
     19 C           1.8554   -0.2891    3.2645 C.ar    1  LIG1        0.1665
     20 C           2.8234    0.6425    3.5332 C.ar    1  LIG1        0.1665
     21 C           3.3544    1.4384    2.5425 C.ar    1  LIG1       -0.0130
     22 C           3.4854    2.1569    0.1554 C.3     1  LIG1       -0.0393
     23 C          -1.1875   -3.9614   -1.5158 C.ar    1  LIG1       -0.0273
     24 C           2.3122   -0.3654    5.3727 C.3     1  LIG1        0.2332
     25 C          -2.0103   -2.9028   -1.8136 C.ar    1  LIG1       -0.0217
     26 C           3.0751   -5.6075   -2.5263 C.ar    1  LIG1        0.2554
     27 C           2.3907   -6.3498   -3.4636 C.ar    1  LIG1        0.1262
     28 C           3.2891   -7.3813   -3.8245 C.ar    1  LIG1        0.1009
     29 C           3.0937   -8.4768   -4.8011 C.3     1  LIG1       -0.0176
     30 H           3.3877   -3.8919   -1.4121 H       1  LIG1        0.1768
     31 H           0.3039    0.4279   -0.4458 H       1  LIG1        0.0394
     32 H           1.8508    0.6944   -1.2064 H       1  LIG1        0.0394
     33 H           0.6052   -1.2346    1.8239 H       1  LIG1        0.0658
     34 H           4.1201    2.1670    2.7895 H       1  LIG1        0.0658
     35 H           2.7128    2.5691   -0.5008 H       1  LIG1        0.0278
     36 H           4.2053    1.5821   -0.4353 H       1  LIG1        0.0278
     37 H           4.0080    3.0151    0.5922 H       1  LIG1        0.0278
     38 H          -1.5127   -4.9960   -1.5404 H       1  LIG1        0.0643
     39 H           2.9417   -1.1497    5.8090 H       1  LIG1        0.1166
     40 H           1.6850    0.0622    6.1633 H       1  LIG1        0.1166
     41 H          -3.0525   -2.9366   -2.1031 H       1  LIG1        0.0694
     42 H           3.7556   -9.3230   -4.5894 H       1  LIG1        0.0294
     43 H           3.3053   -8.1218   -5.8149 H       1  LIG1        0.0294
     44 H           2.0643   -8.8486   -4.7754 H       1  LIG1        0.0294
@<TRIPOS>BOND
     1     1    27    1
     2     2    10    1
     3     2    15    1
     4     2     8    2
     5     2     7    2
     6     3    16   ar
     7     3    25   ar
     8     4    24    1
     9     4    19    1
    10     5    20    1
    11     5    24    1
    12     6    18    2
    13     9    11   ar
    14     9    26   ar
    15    10    26    1
    16    11    28   ar
    17    12    17   ar
    18    12    14   ar
    19    13    18    1
    20    13    12    1
    21    14    21   ar
    22    14    22    1
    23    15    23   ar
    24    15    16   ar
    25    16    18    1
    26    17    19   ar
    27    19    20   ar
    28    20    21   ar
    29    23    25   ar
    30    26    27   ar
    31    27    28   ar
    32    28    29    1
    33    10    30    1
    34    13    31    1
    35    13    32    1
    36    17    33    1
    37    21    34    1
    38    22    35    1
    39    22    36    1
    40    22    37    1
    41    23    38    1
    42    24    39    1
    43    24    40    1
    44    25    41    1
    45    29    42    1
    46    29    43    1
    47    29    44    1
@<TRIPOS>MOLECULE
46174111
 44 47 0 0 0
SMALL
GASTEIGER

@<TRIPOS>ATOM
      1 CL          5.5133   -6.1457   -1.3971 Cl      1  LIG1       -0.0762
      2 S           1.2932   -4.6474   -0.5685 S.O2    1  LIG1        0.0758
      3 S          -1.1243   -1.4018   -1.8705 S.2     1  LIG1       -0.0918
      4 O           1.4701   -0.9704    4.3699 O.3     1  LIG1       -0.4526
      5 O           3.1690    0.6765    4.8377 O.3     1  LIG1       -0.4526
      6 O           2.6228   -1.8788   -1.0817 O.2     1  LIG1       -0.2911
      7 O           0.6317   -5.9318   -0.6035 O.2     1  LIG1       -0.1499
      8 O           1.6977   -4.0580    0.6906 O.2     1  LIG1       -0.1499
      9 O           1.9962   -6.5541   -2.9896 O.2     1  LIG1       -0.3364
     10 N           2.6214   -4.6186   -1.5987 N.pl3   1  LIG1       -0.1821
     11 N           2.5832   -7.7172   -3.4575 N.ar    1  LIG1       -0.0798
     12 C           1.9098    0.2744    0.9252 C.ar    1  LIG1       -0.0333
     13 C           1.3511    0.0524   -0.4688 C.3     1  LIG1        0.0366
     14 C           2.8875    1.2703    1.2097 C.ar    1  LIG1       -0.0432
     15 C           0.1075   -3.5320   -1.1718 C.ar    1  LIG1        0.1261
     16 C           0.2910   -2.1611   -1.2612 C.ar    1  LIG1        0.0814
     17 C           1.3883   -0.5053    1.9801 C.ar    1  LIG1       -0.0123
     18 C           1.4956   -1.3896   -0.9559 C.2     1  LIG1        0.1759
     19 C           1.8682   -0.3017    3.2552 C.ar    1  LIG1        0.1665
     20 C           2.8299    0.6373    3.5215 C.ar    1  LIG1        0.1665
     21 C           3.3571    1.4325    2.5283 C.ar    1  LIG1       -0.0130
     22 C           3.4826    2.1451    0.1386 C.3     1  LIG1       -0.0393
     23 C          -1.2022   -3.9418   -1.5781 C.ar    1  LIG1       -0.0273
     24 C           2.3195   -0.3640    5.3650 C.3     1  LIG1        0.2332
     25 C          -1.9769   -2.8762   -1.9702 C.ar    1  LIG1       -0.0217
     26 C           2.8917   -5.8568   -2.2346 C.ar    1  LIG1        0.2554
     27 C           4.0808   -6.5454   -2.2114 C.ar    1  LIG1        0.1262
     28 C           3.8276   -7.7190   -2.9607 C.ar    1  LIG1        0.1009
     29 C           4.7130   -8.8814   -3.2011 C.3     1  LIG1       -0.0176
     30 H           3.4037   -4.1394   -1.1458 H       1  LIG1        0.1768
     31 H           0.3112    0.3885   -0.4489 H       1  LIG1        0.0394
     32 H           1.8539    0.6697   -1.2194 H       1  LIG1        0.0394
     33 H           0.6273   -1.2621    1.8161 H       1  LIG1        0.0658
     34 H           4.1171    2.1676    2.7738 H       1  LIG1        0.0658
     35 H           2.7040    2.5608   -0.5084 H       1  LIG1        0.0278
     36 H           4.1960    1.5710   -0.4610 H       1  LIG1        0.0278
     37 H           4.0117    3.0004    0.5731 H       1  LIG1        0.0278
     38 H          -1.5584   -4.9673   -1.5692 H       1  LIG1        0.0643
     39 H           2.9514   -1.1422    5.8088 H       1  LIG1        0.1166
     40 H           1.6873    0.0655    6.1505 H       1  LIG1        0.1166
     41 H          -3.0028   -2.8968   -2.3131 H       1  LIG1        0.0694
     42 H           4.4503   -9.3964   -4.1312 H       1  LIG1        0.0294
     43 H           4.6196   -9.5977   -2.3784 H       1  LIG1        0.0294
     44 H           5.7615   -8.5769   -3.2741 H       1  LIG1        0.0294
@<TRIPOS>BOND
     1     1    27    1
     2     2    10    1
     3     2    15    1
     4     2     8    2
     5     2     7    2
     6     3    16   ar
     7     3    25   ar
     8     4    24    1
     9     4    19    1
    10     5    20    1
    11     5    24    1
    12     6    18    2
    13     9    11   ar
    14     9    26   ar
    15    10    26    1
    16    11    28   ar
    17    12    17   ar
    18    12    14   ar
    19    13    18    1
    20    13    12    1
    21    14    21   ar
    22    14    22    1
    23    15    23   ar
    24    15    16   ar
    25    16    18    1
    26    17    19   ar
    27    19    20   ar
    28    20    21   ar
    29    23    25   ar
    30    26    27   ar
    31    27    28   ar
    32    28    29    1
    33    10    30    1
    34    13    31    1
    35    13    32    1
    36    17    33    1
    37    21    34    1
    38    22    35    1
    39    22    36    1
    40    22    37    1
    41    23    38    1
    42    24    39    1
    43    24    40    1
    44    25    41    1
    45    29    42    1
    46    29    43    1
    47    29    44    1
@<TRIPOS>MOLECULE
46174111
 44 47 0 0 0
SMALL
GASTEIGER

@<TRIPOS>ATOM
      1 CL         -0.8635   -5.5353    2.0520 Cl      1  LIG1       -0.0762
      2 S           1.3574   -4.6388   -0.7665 S.O2    1  LIG1        0.0758
      3 S          -1.2687   -1.4079   -1.6673 S.2     1  LIG1       -0.0918
      4 O           4.3928    2.1150    2.2014 O.3     1  LIG1       -0.4526
      5 O           5.8440    3.1081    0.5503 O.3     1  LIG1       -0.4526
      6 O           2.4074   -1.8124   -0.3751 O.2     1  LIG1       -0.2911
      7 O           2.3959   -4.3508   -1.7296 O.2     1  LIG1       -0.1499
      8 O           0.7037   -5.9299   -0.7425 O.2     1  LIG1       -0.1499
      9 O           3.0088   -5.7540    2.3220 O.2     1  LIG1       -0.3364
     10 N           1.9130   -4.2129    0.7674 N.pl3   1  LIG1       -0.1821
     11 N           2.6617   -6.7433    3.2278 N.ar    1  LIG1       -0.0798
     12 C           2.5689    0.9807   -0.8041 C.ar    1  LIG1       -0.0333
     13 C           1.3144    0.1929   -1.1424 C.3     1  LIG1        0.0366
     14 C           3.4281    1.5643   -1.7778 C.ar    1  LIG1       -0.0432
     15 C           0.0900   -3.5196   -1.1806 C.ar    1  LIG1        0.1261
     16 C           0.2222   -2.1370   -1.2045 C.ar    1  LIG1        0.0814
     17 C           2.8651    1.1483    0.5683 C.ar    1  LIG1       -0.0123
     18 C           1.3986   -1.3166   -0.8778 C.2     1  LIG1        0.1759
     19 C           3.9798    1.8714    0.9295 C.ar    1  LIG1        0.1665
     20 C           4.8038    2.4340   -0.0077 C.ar    1  LIG1        0.1665
     21 C           4.5585    2.2987   -1.3559 C.ar    1  LIG1       -0.0130
     22 C           3.2418    1.4404   -3.2674 C.3     1  LIG1       -0.0393
     23 C          -1.2257   -3.9581   -1.5380 C.ar    1  LIG1       -0.0273
     24 C           5.5863    2.8863    1.9525 C.3     1  LIG1        0.2332
     25 C          -2.0626   -2.9065   -1.8209 C.ar    1  LIG1       -0.0217
     26 C           1.8881   -5.2590    1.7266 C.ar    1  LIG1        0.2554
     27 C           0.7860   -5.8611    2.2935 C.ar    1  LIG1        0.1262
     28 C           1.3231   -6.8011    3.2042 C.ar    1  LIG1        0.1009
     29 C           0.6008   -7.7414    4.0918 C.3     1  LIG1       -0.0176
     30 H           2.8243   -3.7574    0.6502 H       1  LIG1        0.1768
     31 H           0.5042    0.6063   -0.5275 H       1  LIG1        0.0394
     32 H           1.0241    0.3477   -2.1827 H       1  LIG1        0.0394
     33 H           2.2384    0.7119    1.3401 H       1  LIG1        0.0658
     34 H           5.2343    2.7532   -2.0744 H       1  LIG1        0.0658
     35 H           2.3016    0.9756   -3.5624 H       1  LIG1        0.0278
     36 H           4.0542    0.8415   -3.6921 H       1  LIG1        0.0278
     37 H           3.2598    2.4353   -3.7270 H       1  LIG1        0.0278
     38 H          -1.5399   -4.9959   -1.5795 H       1  LIG1        0.0643
     39 H           6.4429    2.3582    2.3874 H       1  LIG1        0.1166
     40 H           5.4840    3.8585    2.4483 H       1  LIG1        0.1166
     41 H          -3.1042   -2.9505   -2.1118 H       1  LIG1        0.0694
     42 H           1.2609   -8.5337    4.4596 H       1  LIG1        0.0294
     43 H          -0.2274   -8.2209    3.5601 H       1  LIG1        0.0294
     44 H           0.1923   -7.2087    4.9565 H       1  LIG1        0.0294
@<TRIPOS>BOND
     1     1    27    1
     2     2    10    1
     3     2    15    1
     4     2     8    2
     5     2     7    2
     6     3    16   ar
     7     3    25   ar
     8     4    24    1
     9     4    19    1
    10     5    20    1
    11     5    24    1
    12     6    18    2
    13     9    11   ar
    14     9    26   ar
    15    10    26    1
    16    11    28   ar
    17    12    17   ar
    18    12    14   ar
    19    13    18    1
    20    13    12    1
    21    14    21   ar
    22    14    22    1
    23    15    23   ar
    24    15    16   ar
    25    16    18    1
    26    17    19   ar
    27    19    20   ar
    28    20    21   ar
    29    23    25   ar
    30    26    27   ar
    31    27    28   ar
    32    28    29    1
    33    10    30    1
    34    13    31    1
    35    13    32    1
    36    17    33    1
    37    21    34    1
    38    22    35    1
    39    22    36    1
    40    22    37    1
    41    23    38    1
    42    24    39    1
    43    24    40    1
    44    25    41    1
    45    29    42    1
    46    29    43    1
    47    29    44    1
@<TRIPOS>MOLECULE
46174111
 44 47 0 0 0
SMALL
GASTEIGER

@<TRIPOS>ATOM
      1 CL          0.7799   -4.0993   -4.4625 Cl      1  LIG1       -0.0762
      2 S           1.4971   -4.5814   -0.7211 S.O2    1  LIG1        0.0758
      3 S          -1.2173   -1.4597   -1.7154 S.2     1  LIG1       -0.0918
      4 O           1.4345   -0.9344    4.3759 O.3     1  LIG1       -0.4526
      5 O           3.1945    0.6518    4.8276 O.3     1  LIG1       -0.4526
      6 O           2.5951   -1.6760   -1.2001 O.2     1  LIG1       -0.2911
      7 O           0.9284   -5.9094   -0.8395 O.2     1  LIG1       -0.1499
      8 O           1.9264   -4.0766    0.5631 O.2     1  LIG1       -0.1499
      9 O           3.5876   -6.3811   -3.0437 O.2     1  LIG1       -0.3364
     10 N           2.7874   -4.4346   -1.7979 N.pl3   1  LIG1       -0.1821
     11 N           3.3119   -7.0579   -4.2194 N.ar    1  LIG1       -0.0798
     12 C           1.8465    0.3384    0.9330 C.ar    1  LIG1       -0.0333
     13 C           1.2295    0.1285   -0.4369 C.3     1  LIG1        0.0366
     14 C           2.8730    1.2860    1.2038 C.ar    1  LIG1       -0.0432
     15 C           0.1981   -3.5187   -1.1634 C.ar    1  LIG1        0.1261
     16 C           0.2845   -2.1364   -1.2216 C.ar    1  LIG1        0.0814
     17 C           1.3234   -0.4368    1.9939 C.ar    1  LIG1       -0.0123
     18 C           1.4474   -1.2840   -0.9803 C.2     1  LIG1        0.1759
     19 C           1.8340   -0.2668    3.2614 C.ar    1  LIG1        0.1665
     20 C           2.8308    0.6356    3.5179 C.ar    1  LIG1        0.1665
     21 C           3.3671    1.4182    2.5201 C.ar    1  LIG1       -0.0130
     22 C           3.5217    2.1591    0.1622 C.3     1  LIG1       -0.0393
     23 C          -1.1216   -3.9989   -1.4492 C.ar    1  LIG1       -0.0273
     24 C           2.3235   -0.3680    5.3603 C.3     1  LIG1        0.2332
     25 C          -1.9862   -2.9795   -1.7674 C.ar    1  LIG1       -0.0217
     26 C           2.7316   -5.3302   -2.9022 C.ar    1  LIG1        0.2554
     27 C           1.9273   -5.2652   -4.0173 C.ar    1  LIG1        0.1262
     28 C           2.3160   -6.3776   -4.8017 C.ar    1  LIG1        0.1009
     29 C           1.7956   -6.8018   -6.1221 C.3     1  LIG1       -0.0176
     30 H           3.6447   -4.5396   -1.2534 H       1  LIG1        0.1768
     31 H           0.1704    0.3841   -0.3449 H       1  LIG1        0.0394
     32 H           1.6225    0.8080   -1.1954 H       1  LIG1        0.0394
     33 H           0.5329   -1.1644    1.8366 H       1  LIG1        0.0658
     34 H           4.1589    2.1231    2.7552 H       1  LIG1        0.0658
     35 H           2.9919    2.1824   -0.7896 H       1  LIG1        0.0278
     36 H           4.5436    1.8139   -0.0255 H       1  LIG1        0.0278
     37 H           3.5592    3.1954    0.5177 H       1  LIG1        0.0278
     38 H          -1.4160   -5.0432   -1.4289 H       1  LIG1        0.0643
     39 H           2.9396   -1.1713    5.7809 H       1  LIG1        0.1166
     40 H           1.7212    0.0707    6.1640 H       1  LIG1        0.1166
     41 H          -3.0323   -3.0578   -2.0329 H       1  LIG1        0.0694
     42 H           2.0710   -7.8368   -6.3490 H       1  LIG1        0.0294
     43 H           2.2000   -6.1601   -6.9116 H       1  LIG1        0.0294
     44 H           0.7032   -6.7355   -6.1506 H       1  LIG1        0.0294
@<TRIPOS>BOND
     1     1    27    1
     2     2    10    1
     3     2    15    1
     4     2     8    2
     5     2     7    2
     6     3    16   ar
     7     3    25   ar
     8     4    24    1
     9     4    19    1
    10     5    20    1
    11     5    24    1
    12     6    18    2
    13     9    11   ar
    14     9    26   ar
    15    10    26    1
    16    11    28   ar
    17    12    17   ar
    18    12    14   ar
    19    13    18    1
    20    13    12    1
    21    14    21   ar
    22    14    22    1
    23    15    23   ar
    24    15    16   ar
    25    16    18    1
    26    17    19   ar
    27    19    20   ar
    28    20    21   ar
    29    23    25   ar
    30    26    27   ar
    31    27    28   ar
    32    28    29    1
    33    10    30    1
    34    13    31    1
    35    13    32    1
    36    17    33    1
    37    21    34    1
    38    22    35    1
    39    22    36    1
    40    22    37    1
    41    23    38    1
    42    24    39    1
    43    24    40    1
    44    25    41    1
    45    29    42    1
    46    29    43    1
    47    29    44    1
@<TRIPOS>MOLECULE
46174111
 44 47 0 0 0
SMALL
GASTEIGER

@<TRIPOS>ATOM
      1 CL         -0.9184   -5.6141    2.0464 Cl      1  LIG1       -0.0762
      2 S           1.4026   -4.5026   -0.6175 S.O2    1  LIG1        0.0758
      3 S          -1.3183   -1.3817   -1.5966 S.2     1  LIG1       -0.0918
      4 O           6.2096    1.4160   -1.6255 O.3     1  LIG1       -0.4526
      5 O           5.9415    3.2094   -0.0345 O.3     1  LIG1       -0.4526
      6 O           2.1750   -1.5823    0.0523 O.2     1  LIG1       -0.2911
      7 O           2.4666   -4.0824   -1.5021 O.2     1  LIG1       -0.1499
      8 O           0.8399   -5.8325   -0.7040 O.2     1  LIG1       -0.1499
      9 O           2.9429   -5.7092    2.4853 O.2     1  LIG1       -0.3364
     10 N           1.8545   -4.1332    0.9613 N.pl3   1  LIG1       -0.1821
     11 N           2.5932   -6.7473    3.3335 N.ar    1  LIG1       -0.0798
     12 C           2.5996    0.9981   -1.0127 C.ar    1  LIG1       -0.0333
     13 C           1.4322    0.1402   -1.4661 C.3     1  LIG1        0.0366
     14 C           2.4486    2.0382   -0.0507 C.ar    1  LIG1       -0.0432
     15 C           0.0876   -3.4462   -1.0420 C.ar    1  LIG1        0.1261
     16 C           0.1772   -2.0633   -1.0945 C.ar    1  LIG1        0.0814
     17 C           3.8694    0.7397   -1.5670 C.ar    1  LIG1       -0.0123
     18 C           1.3197   -1.2107   -0.7536 C.2     1  LIG1        0.1759
     19 C           4.9304    1.5280   -1.1786 C.ar    1  LIG1        0.1665
     20 C           4.7785    2.5462   -0.2726 C.ar    1  LIG1        0.1665
     21 C           3.5594    2.8270    0.3041 C.ar    1  LIG1       -0.0130
     22 C           1.1181    2.3623    0.5748 C.3     1  LIG1       -0.0393
     23 C          -1.2070   -3.9303   -1.4120 C.ar    1  LIG1       -0.0273
     24 C           6.8470    2.4793   -0.8880 C.3     1  LIG1        0.2332
     25 C          -2.0682   -2.9072   -1.7303 C.ar    1  LIG1       -0.0217
     26 C           1.8310   -5.2267    1.8645 C.ar    1  LIG1        0.2554
     27 C           0.7286   -5.8929    2.3518 C.ar    1  LIG1        0.1262
     28 C           1.2593   -6.8470    3.2511 C.ar    1  LIG1        0.1009
     29 C           0.5331   -7.8363    4.0800 C.3     1  LIG1       -0.0176
     30 H           2.7438   -3.6255    0.9234 H       1  LIG1        0.1768
     31 H           0.5071    0.7094   -1.3415 H       1  LIG1        0.0394
     32 H           1.5366   -0.0531   -2.5418 H       1  LIG1        0.0394
     33 H           4.0249   -0.0601   -2.2843 H       1  LIG1        0.0658
     34 H           3.4740    3.6408    1.0171 H       1  LIG1        0.0658
     35 H           0.6031    1.4507    0.8932 H       1  LIG1        0.0278
     36 H           0.4922    2.9073   -0.1387 H       1  LIG1        0.0278
     37 H           1.2392    2.9850    1.4679 H       1  LIG1        0.0278
     38 H          -1.4889   -4.9777   -1.4439 H       1  LIG1        0.0643
     39 H           7.2964    3.1794   -1.6017 H       1  LIG1        0.1166
     40 H           7.6428    2.0497   -0.2687 H       1  LIG1        0.1166
     41 H          -3.1023   -2.9856   -2.0397 H       1  LIG1        0.0694
     42 H           1.1944   -8.6429    4.4127 H       1  LIG1        0.0294
     43 H          -0.2878   -8.2915    3.5167 H       1  LIG1        0.0294
     44 H           0.1136   -7.3503    4.9669 H       1  LIG1        0.0294
@<TRIPOS>BOND
     1     1    27    1
     2     2    10    1
     3     2    15    1
     4     2     8    2
     5     2     7    2
     6     3    16   ar
     7     3    25   ar
     8     4    24    1
     9     4    19    1
    10     5    20    1
    11     5    24    1
    12     6    18    2
    13     9    11   ar
    14     9    26   ar
    15    10    26    1
    16    11    28   ar
    17    12    17   ar
    18    12    14   ar
    19    13    18    1
    20    13    12    1
    21    14    21   ar
    22    14    22    1
    23    15    23   ar
    24    15    16   ar
    25    16    18    1
    26    17    19   ar
    27    19    20   ar
    28    20    21   ar
    29    23    25   ar
    30    26    27   ar
    31    27    28   ar
    32    28    29    1
    33    10    30    1
    34    13    31    1
    35    13    32    1
    36    17    33    1
    37    21    34    1
    38    22    35    1
    39    22    36    1
    40    22    37    1
    41    23    38    1
    42    24    39    1
    43    24    40    1
    44    25    41    1
    45    29    42    1
    46    29    43    1
    47    29    44    1
@<TRIPOS>MOLECULE
46174111
 44 47 0 0 0
SMALL
GASTEIGER

@<TRIPOS>ATOM
      1 CL         -1.0292   -3.5959    2.0567 Cl      1  LIG1       -0.0762
      2 S           1.4246   -4.6265   -0.6970 S.O2    1  LIG1        0.0758
      3 S          -1.2196   -1.4359   -1.6945 S.2     1  LIG1       -0.0918
      4 O           4.3781    2.0918    2.1757 O.3     1  LIG1       -0.4526
      5 O           5.8057    3.1727    0.5597 O.3     1  LIG1       -0.4526
      6 O           2.4639   -1.7648   -0.4153 O.2     1  LIG1       -0.2911
      7 O           2.4691   -4.3789   -1.6660 O.2     1  LIG1       -0.1499
      8 O           0.7633   -5.9137   -0.6441 O.2     1  LIG1       -0.1499
      9 O           2.0046   -5.9659    2.5870 O.2     1  LIG1       -0.3364
     10 N           2.0202   -4.2484    0.8407 N.pl3   1  LIG1       -0.1821
     11 N           1.1393   -6.4834    3.5365 N.ar    1  LIG1       -0.0798
     12 C           2.5760    1.0230   -0.8670 C.ar    1  LIG1       -0.0333
     13 C           1.3459    0.2068   -1.2291 C.3     1  LIG1        0.0366
     14 C           3.4179    1.6633   -1.8200 C.ar    1  LIG1       -0.0432
     15 C           0.1621   -3.5185   -1.1455 C.ar    1  LIG1        0.1261
     16 C           0.2792   -2.1366   -1.2120 C.ar    1  LIG1        0.0814
     17 C           2.8666    1.1559    0.5106 C.ar    1  LIG1       -0.0123
     18 C           1.4455   -1.2940   -0.9153 C.2     1  LIG1        0.1759
     19 C           3.9664    1.8882    0.8965 C.ar    1  LIG1        0.1665
     20 C           4.7764    2.5009   -0.0210 C.ar    1  LIG1        0.1665
     21 C           4.5292    2.4120   -1.3727 C.ar    1  LIG1       -0.0130
     22 C           3.2231    1.6060   -3.3125 C.3     1  LIG1       -0.0393
     23 C          -1.1457   -3.9798   -1.5127 C.ar    1  LIG1       -0.0273
     24 C           5.5680    2.8757    1.9515 C.3     1  LIG1        0.2332
     25 C          -1.9949   -2.9456   -1.8198 C.ar    1  LIG1       -0.0217
     26 C           1.3856   -4.9719    1.8902 C.ar    1  LIG1        0.2554
     27 C           0.1319   -4.7758    2.4232 C.ar    1  LIG1        0.1262
     28 C           0.0156   -5.7617    3.4316 C.ar    1  LIG1        0.1009
     29 C          -1.1309   -6.0264    4.3315 C.3     1  LIG1       -0.0176
     30 H           3.0301   -4.3998    0.8111 H       1  LIG1        0.1768
     31 H           0.5091    0.6305   -0.6592 H       1  LIG1        0.0394
     32 H           1.0955    0.3148   -2.2854 H       1  LIG1        0.0394
     33 H           2.2517    0.6776    1.2671 H       1  LIG1        0.0658
     34 H           5.1905    2.9107   -2.0751 H       1  LIG1        0.0658
     35 H           2.3527    1.0328   -3.6293 H       1  LIG1        0.0278
     36 H           4.0997    1.1461   -3.7818 H       1  LIG1        0.0278
     37 H           3.1035    2.6209   -3.7082 H       1  LIG1        0.0278
     38 H          -1.4477   -5.0221   -1.5349 H       1  LIG1        0.0643
     39 H           6.4303    2.3244    2.3446 H       1  LIG1        0.1166
     40 H           5.4740    3.8194    2.5006 H       1  LIG1        0.1166
     41 H          -3.0343   -3.0092   -2.1136 H       1  LIG1        0.0694
     42 H          -1.0172   -6.9778    4.8610 H       1  LIG1        0.0294
     43 H          -2.0660   -6.0720    3.7635 H       1  LIG1        0.0294
     44 H          -1.2199   -5.2298    5.0771 H       1  LIG1        0.0294
@<TRIPOS>BOND
     1     1    27    1
     2     2    10    1
     3     2    15    1
     4     2     8    2
     5     2     7    2
     6     3    16   ar
     7     3    25   ar
     8     4    24    1
     9     4    19    1
    10     5    20    1
    11     5    24    1
    12     6    18    2
    13     9    11   ar
    14     9    26   ar
    15    10    26    1
    16    11    28   ar
    17    12    17   ar
    18    12    14   ar
    19    13    18    1
    20    13    12    1
    21    14    21   ar
    22    14    22    1
    23    15    23   ar
    24    15    16   ar
    25    16    18    1
    26    17    19   ar
    27    19    20   ar
    28    20    21   ar
    29    23    25   ar
    30    26    27   ar
    31    27    28   ar
    32    28    29    1
    33    10    30    1
    34    13    31    1
    35    13    32    1
    36    17    33    1
    37    21    34    1
    38    22    35    1
    39    22    36    1
    40    22    37    1
    41    23    38    1
    42    24    39    1
    43    24    40    1
    44    25    41    1
    45    29    42    1
    46    29    43    1
    47    29    44    1
@<TRIPOS>MOLECULE
46174111
 44 47 0 0 0
SMALL
GASTEIGER

@<TRIPOS>ATOM
      1 CL          4.0745   -6.7598    0.9700 Cl      1  LIG1       -0.0762
      2 S           1.7382   -4.6321   -0.8315 S.O2    1  LIG1        0.0758
      3 S          -1.2395   -1.6150   -1.5155 S.2     1  LIG1       -0.0918
      4 O          -1.5211    0.0399    3.7101 O.3     1  LIG1       -0.4526
      5 O           0.4141    0.0999    5.1481 O.3     1  LIG1       -0.4526
      6 O           2.5932   -1.5208   -1.2695 O.2     1  LIG1       -0.2911
      7 O           1.9430   -5.2214   -2.1362 O.2     1  LIG1       -0.1499
      8 O           1.2403   -5.4155    0.2800 O.2     1  LIG1       -0.1499
      9 O           3.8211   -2.9650    1.7721 O.2     1  LIG1       -0.3364
     10 N           3.1488   -3.8390   -0.4013 N.pl3   1  LIG1       -0.1821
     11 N           4.2802   -3.4237    2.9931 N.ar    1  LIG1       -0.0798
     12 C           1.0475    0.2012    1.0678 C.ar    1  LIG1       -0.0333
     13 C           1.1544    0.1914   -0.4438 C.3     1  LIG1        0.0366
     14 C           2.1894    0.2368    1.9179 C.ar    1  LIG1       -0.0432
     15 C           0.3883   -3.5583   -1.1242 C.ar    1  LIG1        0.1261
     16 C           0.3497   -2.1711   -1.1492 C.ar    1  LIG1        0.0814
     17 C          -0.2394    0.1381    1.6413 C.ar    1  LIG1       -0.0123
     18 C           1.4310   -1.2053   -0.9984 C.2     1  LIG1        0.1759
     19 C          -0.3553    0.1037    3.0136 C.ar    1  LIG1        0.1665
     20 C           0.7437    0.1361    3.8300 C.ar    1  LIG1        0.1665
     21 C           2.0191    0.2093    3.3172 C.ar    1  LIG1       -0.0130
     22 C           3.5988    0.3890    1.4072 C.3     1  LIG1       -0.0393
     23 C          -0.9067   -4.1360   -1.3730 C.ar    1  LIG1       -0.0273
     24 C          -1.0236    0.0209    5.0648 C.3     1  LIG1        0.2332
     25 C          -1.8763   -3.1893   -1.5912 C.ar    1  LIG1       -0.0217
     26 C           3.5950   -4.0151    0.9343 C.ar    1  LIG1        0.2554
     27 C           3.9788   -5.1750    1.5720 C.ar    1  LIG1        0.1262
     28 C           4.3798   -4.7537    2.8633 C.ar    1  LIG1        0.1009
     29 C           4.9068   -5.5684    3.9825 C.3     1  LIG1       -0.0176
     30 H           3.1848   -2.8693   -0.7345 H       1  LIG1        0.1768
     31 H           0.2625    0.6297   -0.9029 H       1  LIG1        0.0394
     32 H           1.9652    0.8572   -0.7646 H       1  LIG1        0.0394
     33 H          -1.1394    0.1235    1.0354 H       1  LIG1        0.0658
     34 H           2.8713    0.2449    3.9896 H       1  LIG1        0.0658
     35 H           3.7242    0.0158    0.3903 H       1  LIG1        0.0278
     36 H           4.2977   -0.1760    2.0338 H       1  LIG1        0.0278
     37 H           3.8856    1.4452    1.4290 H       1  LIG1        0.0278
     38 H          -1.1022   -5.2035   -1.3885 H       1  LIG1        0.0643
     39 H          -1.3528   -0.9074    5.5460 H       1  LIG1        0.1166
     40 H          -1.4538    0.8703    5.6077 H       1  LIG1        0.1166
     41 H          -2.9254   -3.3524   -1.8017 H       1  LIG1        0.0694
     42 H           4.7122   -5.0900    4.9480 H       1  LIG1        0.0294
     43 H           5.9888   -5.6987    3.8773 H       1  LIG1        0.0294
     44 H           4.4417   -6.5589    4.0056 H       1  LIG1        0.0294
@<TRIPOS>BOND
     1     1    27    1
     2     2    10    1
     3     2    15    1
     4     2     8    2
     5     2     7    2
     6     3    16   ar
     7     3    25   ar
     8     4    24    1
     9     4    19    1
    10     5    20    1
    11     5    24    1
    12     6    18    2
    13     9    11   ar
    14     9    26   ar
    15    10    26    1
    16    11    28   ar
    17    12    17   ar
    18    12    14   ar
    19    13    18    1
    20    13    12    1
    21    14    21   ar
    22    14    22    1
    23    15    23   ar
    24    15    16   ar
    25    16    18    1
    26    17    19   ar
    27    19    20   ar
    28    20    21   ar
    29    23    25   ar
    30    26    27   ar
    31    27    28   ar
    32    28    29    1
    33    10    30    1
    34    13    31    1
    35    13    32    1
    36    17    33    1
    37    21    34    1
    38    22    35    1
    39    22    36    1
    40    22    37    1
    41    23    38    1
    42    24    39    1
    43    24    40    1
    44    25    41    1
    45    29    42    1
    46    29    43    1
    47    29    44    1
@<TRIPOS>MOLECULE
46174111
 44 47 0 0 0
SMALL
GASTEIGER

@<TRIPOS>ATOM
      1 CL         -0.8189   -5.4561    1.9994 Cl      1  LIG1       -0.0762
      2 S           1.3877   -4.5696   -0.7944 S.O2    1  LIG1        0.0758
      3 S          -1.3888   -1.3904   -1.3396 S.2     1  LIG1       -0.0918
      4 O           5.8768    2.0876   -1.9119 O.3     1  LIG1       -0.4526
      5 O           5.8461    1.8314   -4.3104 O.3     1  LIG1       -0.4526
      6 O           2.3459   -1.6925   -0.2858 O.2     1  LIG1       -0.2911
      7 O           2.3622   -4.1852   -1.7928 O.2     1  LIG1       -0.1499
      8 O           0.7861   -5.8853   -0.8112 O.2     1  LIG1       -0.1499
      9 O           3.0434   -5.7925    2.2869 O.2     1  LIG1       -0.3364
     10 N           2.0181   -4.2159    0.7266 N.pl3   1  LIG1       -0.1821
     11 N           2.6607   -6.7710    3.1884 N.ar    1  LIG1       -0.0798
     12 C           2.5275    0.5713   -2.2051 C.ar    1  LIG1       -0.0333
     13 C           1.3394    0.2002   -1.3383 C.3     1  LIG1        0.0366
     14 C           2.5257    0.3904   -3.6179 C.ar    1  LIG1       -0.0432
     15 C           0.0634   -3.4770   -1.0754 C.ar    1  LIG1        0.1261
     16 C           0.1621   -2.0923   -1.0876 C.ar    1  LIG1        0.0814
     17 C           3.6611    1.1273   -1.5770 C.ar    1  LIG1       -0.0123
     18 C           1.3510   -1.2547   -0.8721 C.2     1  LIG1        0.1759
     19 C           4.7269    1.5164   -2.3596 C.ar    1  LIG1        0.1665
     20 C           4.7112    1.3692   -3.7222 C.ar    1  LIG1        0.1665
     21 C           3.6344    0.8138   -4.3767 C.ar    1  LIG1       -0.0130
     22 C           1.3511   -0.1739   -4.3713 C.3     1  LIG1       -0.0393
     23 C          -1.2642   -3.9410   -1.3445 C.ar    1  LIG1       -0.0273
     24 C           6.5836    2.2806   -3.1549 C.3     1  LIG1        0.2332
     25 C          -2.1496   -2.9042   -1.5106 C.ar    1  LIG1       -0.0217
     26 C           1.9432   -5.2613    1.6840 C.ar    1  LIG1        0.2554
     27 C           0.8193   -5.8300    2.2429 C.ar    1  LIG1        0.1262
     28 C           1.3212   -6.7873    3.1565 C.ar    1  LIG1        0.1009
     29 C           0.5652   -7.7046    4.0399 C.3     1  LIG1       -0.0176
     30 H           2.9483   -3.8055    0.6043 H       1  LIG1        0.1768
     31 H           1.3277    0.8226   -0.4336 H       1  LIG1        0.0394
     32 H           0.4307    0.4749   -1.8778 H       1  LIG1        0.0394
     33 H           3.7062    1.2601   -0.5001 H       1  LIG1        0.0658
     34 H           3.6511    0.7146   -5.4576 H       1  LIG1        0.0658
     35 H           0.7556   -0.8541   -3.7599 H       1  LIG1        0.0278
     36 H           1.6924   -0.7569   -5.2344 H       1  LIG1        0.0278
     37 H           0.7111    0.6394   -4.7264 H       1  LIG1        0.0278
     38 H          -1.5532   -4.9852   -1.4016 H       1  LIG1        0.0643
     39 H           7.5317    1.7326   -3.1093 H       1  LIG1        0.1166
     40 H           6.8006    3.3487   -3.2720 H       1  LIG1        0.1166
     41 H          -3.2109   -2.9680   -1.7152 H       1  LIG1        0.0694
     42 H           1.1975   -8.5195    4.4079 H       1  LIG1        0.0294
     43 H          -0.2769   -8.1553    3.5050 H       1  LIG1        0.0294
     44 H           0.1723   -7.1606    4.9047 H       1  LIG1        0.0294
@<TRIPOS>BOND
     1     1    27    1
     2     2    10    1
     3     2    15    1
     4     2     8    2
     5     2     7    2
     6     3    16   ar
     7     3    25   ar
     8     4    24    1
     9     4    19    1
    10     5    20    1
    11     5    24    1
    12     6    18    2
    13     9    11   ar
    14     9    26   ar
    15    10    26    1
    16    11    28   ar
    17    12    17   ar
    18    12    14   ar
    19    13    18    1
    20    13    12    1
    21    14    21   ar
    22    14    22    1
    23    15    23   ar
    24    15    16   ar
    25    16    18    1
    26    17    19   ar
    27    19    20   ar
    28    20    21   ar
    29    23    25   ar
    30    26    27   ar
    31    27    28   ar
    32    28    29    1
    33    10    30    1
    34    13    31    1
    35    13    32    1
    36    17    33    1
    37    21    34    1
    38    22    35    1
    39    22    36    1
    40    22    37    1
    41    23    38    1
    42    24    39    1
    43    24    40    1
    44    25    41    1
    45    29    42    1
    46    29    43    1
    47    29    44    1
@<TRIPOS>MOLECULE
46174111
 44 47 0 0 0
SMALL
GASTEIGER

@<TRIPOS>ATOM
      1 CL          0.8945   -5.9780   -4.2101 Cl      1  LIG1       -0.0762
      2 S           1.4234   -4.6332   -0.7655 S.O2    1  LIG1        0.0758
      3 S          -1.1983   -1.4060   -1.6631 S.2     1  LIG1       -0.0918
      4 O           3.9583   -0.2588    3.7445 O.3     1  LIG1       -0.4526
      5 O           5.3424    1.6377    3.1927 O.3     1  LIG1       -0.4526
      6 O           2.6055   -1.7810   -1.1552 O.2     1  LIG1       -0.2911
      7 O           0.8235   -5.9421   -0.8948 O.2     1  LIG1       -0.1499
      8 O           1.8752   -4.1376    0.5164 O.2     1  LIG1       -0.1499
      9 O           4.3022   -6.1865   -2.3524 O.2     1  LIG1       -0.3364
     10 N           2.6695   -4.4205   -1.8821 N.pl3   1  LIG1       -0.1821
     11 N           4.4092   -7.3183   -3.1453 N.ar    1  LIG1       -0.0798
     12 C           2.4013    0.5604    0.4969 C.ar    1  LIG1       -0.0333
     13 C           1.2614    0.0593   -0.3709 C.3     1  LIG1        0.0366
     14 C           3.2156    1.6817    0.1736 C.ar    1  LIG1       -0.0432
     15 C           0.1497   -3.5308   -1.1934 C.ar    1  LIG1        0.1261
     16 C           0.2812   -2.1518   -1.2067 C.ar    1  LIG1        0.0814
     17 C           2.6235   -0.1302    1.7111 C.ar    1  LIG1       -0.0123
     18 C           1.4732   -1.3499   -0.9284 C.2     1  LIG1        0.1759
     19 C           3.6277    0.2982    2.5497 C.ar    1  LIG1        0.1665
     20 C           4.4123    1.3753    2.2366 C.ar    1  LIG1        0.1665
     21 C           4.2343    2.0800    1.0669 C.ar    1  LIG1       -0.0130
     22 C           3.0956    2.4891   -1.0920 C.3     1  LIG1       -0.0393
     23 C          -1.1721   -3.9618   -1.5296 C.ar    1  LIG1       -0.0273
     24 C           5.0602    0.5843    4.1378 C.3     1  LIG1        0.2332
     25 C          -2.0048   -2.9029   -1.8048 C.ar    1  LIG1       -0.0217
     26 C           3.0806   -5.6137   -2.5315 C.ar    1  LIG1        0.2554
     27 C           2.3974   -6.3186   -3.4972 C.ar    1  LIG1        0.1262
     28 C           3.2609   -7.3870   -3.8337 C.ar    1  LIG1        0.1009
     29 C           3.0525   -8.4655   -4.8270 C.3     1  LIG1       -0.0176
     30 H           3.4236   -3.9142   -1.4074 H       1  LIG1        0.1768
     31 H           0.3647    0.0751    0.2614 H       1  LIG1        0.0394
     32 H           1.0571    0.7160   -1.2177 H       1  LIG1        0.0394
     33 H           2.0261   -0.9927    1.9938 H       1  LIG1        0.0658
     34 H           4.8763    2.9277    0.8461 H       1  LIG1        0.0658
     35 H           2.2324    2.2325   -1.7048 H       1  LIG1        0.0278
     36 H           3.9913    2.3477   -1.7060 H       1  LIG1        0.0278
     37 H           3.0015    3.5528   -0.8453 H       1  LIG1        0.0278
     38 H          -1.4943   -4.9975   -1.5627 H       1  LIG1        0.0643
     39 H           5.9561   -0.0375    4.2480 H       1  LIG1        0.1166
     40 H           4.8251    1.0375    5.1077 H       1  LIG1        0.1166
     41 H          -3.0499   -2.9388   -2.0834 H       1  LIG1        0.0694
     42 H           3.6742   -9.3390   -4.6051 H       1  LIG1        0.0294
     43 H           3.3079   -8.1094   -5.8301 H       1  LIG1        0.0294
     44 H           2.0089   -8.7963   -4.8354 H       1  LIG1        0.0294
@<TRIPOS>BOND
     1     1    27    1
     2     2    10    1
     3     2    15    1
     4     2     8    2
     5     2     7    2
     6     3    16   ar
     7     3    25   ar
     8     4    24    1
     9     4    19    1
    10     5    20    1
    11     5    24    1
    12     6    18    2
    13     9    11   ar
    14     9    26   ar
    15    10    26    1
    16    11    28   ar
    17    12    17   ar
    18    12    14   ar
    19    13    18    1
    20    13    12    1
    21    14    21   ar
    22    14    22    1
    23    15    23   ar
    24    15    16   ar
    25    16    18    1
    26    17    19   ar
    27    19    20   ar
    28    20    21   ar
    29    23    25   ar
    30    26    27   ar
    31    27    28   ar
    32    28    29    1
    33    10    30    1
    34    13    31    1
    35    13    32    1
    36    17    33    1
    37    21    34    1
    38    22    35    1
    39    22    36    1
    40    22    37    1
    41    23    38    1
    42    24    39    1
    43    24    40    1
    44    25    41    1
    45    29    42    1
    46    29    43    1
    47    29    44    1
@<TRIPOS>MOLECULE
46174111
 44 47 0 0 0
SMALL
GASTEIGER

@<TRIPOS>ATOM
      1 CL          2.2511   -4.2330    3.2596 Cl      1  LIG1       -0.0762
      2 S           1.5741   -4.4860   -0.6138 S.O2    1  LIG1        0.0758
      3 S          -1.3244   -1.5159   -1.5890 S.2     1  LIG1       -0.0918
      4 O           5.5699    2.2616    0.5581 O.3     1  LIG1       -0.4526
      5 O           5.7016    3.5235   -1.4936 O.3     1  LIG1       -0.4526
      6 O           2.4882   -1.6526   -1.7263 O.2     1  LIG1       -0.2911
      7 O           2.0521   -4.9437   -1.8975 O.2     1  LIG1       -0.1499
      8 O           1.0342   -5.3900    0.3780 O.2     1  LIG1       -0.1499
      9 O           4.9005   -4.6664    0.4501 O.2     1  LIG1       -0.3364
     10 N           2.7680   -3.5041    0.0803 N.pl3   1  LIG1       -0.1821
     11 N           5.5541   -5.3281    1.4776 N.ar    1  LIG1       -0.0798
     12 C           2.4283    1.0693   -0.9600 C.ar    1  LIG1       -0.0333
     13 C           1.2693    0.1392   -0.6593 C.3     1  LIG1        0.0366
     14 C           2.5183    1.7970   -2.1799 C.ar    1  LIG1       -0.0432
     15 C           0.2079   -3.4896   -1.0269 C.ar    1  LIG1        0.1261
     16 C           0.2446   -2.1247   -1.2554 C.ar    1  LIG1        0.0814
     17 C           3.4532    1.1893    0.0015 C.ar    1  LIG1       -0.0123
     18 C           1.4060   -1.2460   -1.2942 C.2     1  LIG1        0.1759
     19 C           4.5105    2.0324   -0.2629 C.ar    1  LIG1        0.1665
     20 C           4.5865    2.7485   -1.4294 C.ar    1  LIG1        0.1665
     21 C           3.6134    2.6555   -2.3993 C.ar    1  LIG1       -0.0130
     22 C           1.4769    1.7241   -3.2652 C.3     1  LIG1       -0.0393
     23 C          -1.1120   -4.0292   -1.1519 C.ar    1  LIG1       -0.0273
     24 C           6.3294    3.1966   -0.2367 C.3     1  LIG1        0.2332
     25 C          -2.0393   -3.0600   -1.4563 C.ar    1  LIG1       -0.0217
     26 C           3.6741   -4.2605    0.8755 C.ar    1  LIG1        0.2554
     27 C           3.5250   -4.5987    2.2002 C.ar    1  LIG1        0.1262
     28 C           4.7227   -5.2753    2.5280 C.ar    1  LIG1        0.1009
     29 C           5.1311   -5.8471    3.8314 C.3     1  LIG1       -0.0176
     30 H           3.2556   -3.0757   -0.7225 H       1  LIG1        0.1768
     31 H           1.1922   -0.0113    0.4258 H       1  LIG1        0.0394
     32 H           0.3424    0.6341   -0.9613 H       1  LIG1        0.0394
     33 H           3.4287    0.6362    0.9350 H       1  LIG1        0.0658
     34 H           3.7028    3.2329   -3.3142 H       1  LIG1        0.0658
     35 H           0.7643    0.9097   -3.1215 H       1  LIG1        0.0278
     36 H           1.9577    1.5529   -4.2344 H       1  LIG1        0.0278
     37 H           0.9169    2.6639   -3.3054 H       1  LIG1        0.0278
     38 H          -1.3621   -5.0764   -1.0171 H       1  LIG1        0.0643
     39 H           7.3164    2.7648   -0.4396 H       1  LIG1        0.1166
     40 H           6.4614    4.1197    0.3393 H       1  LIG1        0.1166
     41 H          -3.1037   -3.1860   -1.6064 H       1  LIG1        0.0694
     42 H           5.9657   -6.5467    3.7194 H       1  LIG1        0.0294
     43 H           4.3020   -6.3897    4.2966 H       1  LIG1        0.0294
     44 H           5.4448   -5.0487    4.5117 H       1  LIG1        0.0294
@<TRIPOS>BOND
     1     1    27    1
     2     2    10    1
     3     2    15    1
     4     2     8    2
     5     2     7    2
     6     3    16   ar
     7     3    25   ar
     8     4    24    1
     9     4    19    1
    10     5    20    1
    11     5    24    1
    12     6    18    2
    13     9    11   ar
    14     9    26   ar
    15    10    26    1
    16    11    28   ar
    17    12    17   ar
    18    12    14   ar
    19    13    18    1
    20    13    12    1
    21    14    21   ar
    22    14    22    1
    23    15    23   ar
    24    15    16   ar
    25    16    18    1
    26    17    19   ar
    27    19    20   ar
    28    20    21   ar
    29    23    25   ar
    30    26    27   ar
    31    27    28   ar
    32    28    29    1
    33    10    30    1
    34    13    31    1
    35    13    32    1
    36    17    33    1
    37    21    34    1
    38    22    35    1
    39    22    36    1
    40    22    37    1
    41    23    38    1
    42    24    39    1
    43    24    40    1
    44    25    41    1
    45    29    42    1
    46    29    43    1
    47    29    44    1
@<TRIPOS>MOLECULE
46174111
 44 47 0 0 0
SMALL
GASTEIGER

@<TRIPOS>ATOM
      1 CL          0.1562   -6.6142    2.3618 Cl      1  LIG1       -0.0762
      2 S           1.3955   -4.6310   -0.7207 S.O2    1  LIG1        0.0758
      3 S          -1.2616   -1.4444   -1.6875 S.2     1  LIG1       -0.0918
      4 O           3.7616    3.0152    2.0246 O.3     1  LIG1       -0.4526
      5 O           5.7228    3.2074    0.6328 O.3     1  LIG1       -0.4526
      6 O           2.2865   -1.7940   -0.1076 O.2     1  LIG1       -0.2911
      7 O           2.4508   -4.2871   -1.6490 O.2     1  LIG1       -0.1499
      8 O           0.7656   -5.9345   -0.7376 O.2     1  LIG1       -0.1499
      9 O           3.8145   -5.4666    1.7182 O.2     1  LIG1       -0.3364
     10 N           1.8818   -4.2217    0.8471 N.pl3   1  LIG1       -0.1821
     11 N           4.0632   -6.6327    2.4255 N.ar    1  LIG1       -0.0798
     12 C           2.5864    0.9287   -0.7782 C.ar    1  LIG1       -0.0333
     13 C           1.3596    0.1454   -1.2044 C.3     1  LIG1        0.0366
     14 C           3.7560    1.0137   -1.5838 C.ar    1  LIG1       -0.0432
     15 C           0.1086   -3.5383   -1.1532 C.ar    1  LIG1        0.1261
     16 C           0.2157   -2.1537   -1.1641 C.ar    1  LIG1        0.0814
     17 C           2.5504    1.5831    0.4707 C.ar    1  LIG1       -0.0123
     18 C           1.3618   -1.3250   -0.7766 C.2     1  LIG1        0.1759
     19 C           3.6466    2.3191    0.8622 C.ar    1  LIG1        0.1665
     20 C           4.7616    2.4263    0.0726 C.ar    1  LIG1        0.1665
     21 C           4.8464    1.7928   -1.1491 C.ar    1  LIG1       -0.0130
     22 C           3.8602    0.3472   -2.9295 C.3     1  LIG1       -0.0393
     23 C          -1.1890   -3.9953   -1.5503 C.ar    1  LIG1       -0.0273
     24 C           5.0872    3.5657    1.8774 C.3     1  LIG1        0.2332
     25 C          -2.0309   -2.9544   -1.8603 C.ar    1  LIG1       -0.0217
     26 C           2.4744   -5.3246    1.5254 C.ar    1  LIG1        0.2554
     27 C           1.8220   -6.3544    2.1638 C.ar    1  LIG1        0.1262
     28 C           2.8592   -7.1590    2.6899 C.ar    1  LIG1        0.1009
     29 C           2.7429   -8.4147    3.4675 C.3     1  LIG1       -0.0176
     30 H           2.5459   -3.4380    0.7268 H       1  LIG1        0.1768
     31 H           0.4817    0.6366   -0.7662 H       1  LIG1        0.0394
     32 H           1.2450    0.2057   -2.2924 H       1  LIG1        0.0394
     33 H           1.6832    1.5241    1.1206 H       1  LIG1        0.0658
     34 H           5.7430    1.8990   -1.7516 H       1  LIG1        0.0658
     35 H           3.3262   -0.6066   -2.9505 H       1  LIG1        0.0278
     36 H           4.9042    0.1243   -3.1742 H       1  LIG1        0.0278
     37 H           3.4538    1.0061   -3.7031 H       1  LIG1        0.0278
     38 H          -1.4855   -5.0380   -1.6038 H       1  LIG1        0.0643
     39 H           5.7097    3.2073    2.7054 H       1  LIG1        0.1166
     40 H           5.0202    4.6582    1.9353 H       1  LIG1        0.1166
     41 H          -3.0613   -3.0131   -2.1856 H       1  LIG1        0.0694
     42 H           3.7160   -8.8957    3.6060 H       1  LIG1        0.0294
     43 H           2.0879   -9.1261    2.9548 H       1  LIG1        0.0294
     44 H           2.3212   -8.2102    4.4577 H       1  LIG1        0.0294
@<TRIPOS>BOND
     1     1    27    1
     2     2    10    1
     3     2    15    1
     4     2     8    2
     5     2     7    2
     6     3    16   ar
     7     3    25   ar
     8     4    24    1
     9     4    19    1
    10     5    20    1
    11     5    24    1
    12     6    18    2
    13     9    11   ar
    14     9    26   ar
    15    10    26    1
    16    11    28   ar
    17    12    17   ar
    18    12    14   ar
    19    13    18    1
    20    13    12    1
    21    14    21   ar
    22    14    22    1
    23    15    23   ar
    24    15    16   ar
    25    16    18    1
    26    17    19   ar
    27    19    20   ar
    28    20    21   ar
    29    23    25   ar
    30    26    27   ar
    31    27    28   ar
    32    28    29    1
    33    10    30    1
    34    13    31    1
    35    13    32    1
    36    17    33    1
    37    21    34    1
    38    22    35    1
    39    22    36    1
    40    22    37    1
    41    23    38    1
    42    24    39    1
    43    24    40    1
    44    25    41    1
    45    29    42    1
    46    29    43    1
    47    29    44    1
@<TRIPOS>MOLECULE
46174111
 44 47 0 0 0
SMALL
GASTEIGER

@<TRIPOS>ATOM
      1 CL          2.2339   -4.1629    3.3636 Cl      1  LIG1       -0.0762
      2 S           1.5948   -4.3818   -0.5372 S.O2    1  LIG1        0.0758
      3 S          -1.2754   -1.4873   -1.7851 S.2     1  LIG1       -0.0918
      4 O          -1.4739    0.0056    3.5631 O.3     1  LIG1       -0.4526
      5 O           0.4623   -0.0705    4.9998 O.3     1  LIG1       -0.4526
      6 O           2.5199   -1.4922   -1.6073 O.2     1  LIG1       -0.2911
      7 O           2.1442   -4.8600   -1.7842 O.2     1  LIG1       -0.1499
      8 O           1.0145   -5.2745    0.4428 O.2     1  LIG1       -0.1499
      9 O           4.8894   -4.5315    0.5509 O.2     1  LIG1       -0.3364
     10 N           2.7490   -3.3820    0.1945 N.pl3   1  LIG1       -0.1821
     11 N           5.5431   -5.2124    1.5643 N.ar    1  LIG1       -0.0798
     12 C           1.1002    0.1643    0.9258 C.ar    1  LIG1       -0.0333
     13 C           1.2122    0.2331   -0.5859 C.3     1  LIG1        0.0366
     14 C           2.2421    0.1040    1.7752 C.ar    1  LIG1       -0.0432
     15 C           0.2423   -3.4152   -1.0486 C.ar    1  LIG1        0.1261
     16 C           0.2649   -2.0516   -1.2830 C.ar    1  LIG1        0.0814
     17 C          -0.1889    0.1305    1.4969 C.ar    1  LIG1       -0.0123
     18 C           1.3994   -1.1414   -1.2218 C.2     1  LIG1        0.1759
     19 C          -0.3066    0.0445    2.8672 C.ar    1  LIG1        0.1665
     20 C           0.7929   -0.0017    3.6831 C.ar    1  LIG1        0.1665
     21 C           2.0710    0.0335    3.1724 C.ar    1  LIG1       -0.0130
     22 C           3.6523    0.1974    1.2550 C.3     1  LIG1       -0.0393
     23 C          -1.0513   -3.9855   -1.2734 C.ar    1  LIG1       -0.0273
     24 C          -0.9780   -0.0770    4.9162 C.3     1  LIG1        0.2332
     25 C          -1.9701   -3.0421   -1.6704 C.ar    1  LIG1       -0.0217
     26 C           3.6610   -4.1385    0.9828 C.ar    1  LIG1        0.2554
     27 C           3.5114   -4.5025    2.3002 C.ar    1  LIG1        0.1262
     28 C           4.7087   -5.1875    2.6135 C.ar    1  LIG1        0.1009
     29 C           5.1137   -5.7971    3.9007 C.3     1  LIG1       -0.0176
     30 H           3.2403   -2.9317   -0.5923 H       1  LIG1        0.1768
     31 H           0.3421    0.7397   -1.0176 H       1  LIG1        0.0394
     32 H           2.0616    0.8668   -0.8688 H       1  LIG1        0.0394
     33 H          -1.0877    0.1787    0.8905 H       1  LIG1        0.0658
     34 H           2.9215    0.0103    3.8467 H       1  LIG1        0.0658
     35 H           3.7665   -0.2848    0.2830 H       1  LIG1        0.0278
     36 H           4.3504   -0.3060    1.9328 H       1  LIG1        0.0278
     37 H           3.9459    1.2482    1.1696 H       1  LIG1        0.0278
     38 H          -1.2883   -5.0364   -1.1447 H       1  LIG1        0.0643
     39 H          -1.3521   -1.0011    5.3717 H       1  LIG1        0.1166
     40 H          -1.3660    0.7769    5.4836 H       1  LIG1        0.1166
     41 H          -3.0154   -3.1947   -1.9057 H       1  LIG1        0.0694
     42 H           5.9410   -6.5022    3.7678 H       1  LIG1        0.0294
     43 H           4.2806   -6.3445    4.3533 H       1  LIG1        0.0294
     44 H           5.4374   -5.0204    4.6011 H       1  LIG1        0.0294
@<TRIPOS>BOND
     1     1    27    1
     2     2    10    1
     3     2    15    1
     4     2     8    2
     5     2     7    2
     6     3    16   ar
     7     3    25   ar
     8     4    24    1
     9     4    19    1
    10     5    20    1
    11     5    24    1
    12     6    18    2
    13     9    11   ar
    14     9    26   ar
    15    10    26    1
    16    11    28   ar
    17    12    17   ar
    18    12    14   ar
    19    13    18    1
    20    13    12    1
    21    14    21   ar
    22    14    22    1
    23    15    23   ar
    24    15    16   ar
    25    16    18    1
    26    17    19   ar
    27    19    20   ar
    28    20    21   ar
    29    23    25   ar
    30    26    27   ar
    31    27    28   ar
    32    28    29    1
    33    10    30    1
    34    13    31    1
    35    13    32    1
    36    17    33    1
    37    21    34    1
    38    22    35    1
    39    22    36    1
    40    22    37    1
    41    23    38    1
    42    24    39    1
    43    24    40    1
    44    25    41    1
    45    29    42    1
    46    29    43    1
    47    29    44    1
