@<TRIPOS>MOLECULE
*****
 67 70 0 0 0
SMALL
GASTEIGER

@<TRIPOS>ATOM
      1 C          10.0790    1.5182   -0.5844 C.ar    1  LIG1        0.0483
      2 C           9.6595    1.8630    0.6789 C.ar    1  LIG1        0.0543
      3 C           8.3040    2.0427    0.8240 C.ar    1  LIG1        0.0483
      4 N           7.4197    1.8972   -0.1863 N.ar    1  LIG1       -0.2022
      5 N           9.2393    1.3468   -1.6281 N.ar    1  LIG1       -0.2022
      6 C           4.8047   -0.5960   -9.0515 C.ar    1  LIG1       -0.0504
      7 C           5.8962   -0.1420   -8.3059 C.ar    1  LIG1       -0.0583
      8 C           5.7972    1.0207   -7.5301 C.ar    1  LIG1       -0.0535
      9 C           4.6047    1.7591   -7.4733 C.ar    1  LIG1       -0.0094
     10 C           3.5295    1.3092   -8.2626 C.ar    1  LIG1       -0.0535
     11 C           3.6284    0.1551   -9.0460 C.ar    1  LIG1       -0.0583
     12 C           4.3650    9.0545  -10.5003 C.ar    1  LIG1       -0.0561
     13 C           4.8730    7.7796  -10.2207 C.ar    1  LIG1       -0.0348
     14 C           4.3178    7.0076   -9.1976 C.ar    1  LIG1        0.1086
     15 C           3.2702    7.5252   -8.4396 C.ar    1  LIG1       -0.0348
     16 C           2.7586    8.7957   -8.7355 C.ar    1  LIG1       -0.0561
     17 C           2.6631   10.9634  -10.0997 C.3     1  LIG1        0.0132
     18 C           3.2800    9.5834   -9.7824 C.ar    1  LIG1       -0.0394
     19 C           2.8560   11.8939   -8.8829 C.3     1  LIG1       -0.0537
     20 C           3.2386   11.6595  -11.3715 C.3     1  LIG1        0.0533
     21 C           1.1455   10.7926  -10.3615 C.3     1  LIG1       -0.0537
     22 O           4.5906   12.0856  -11.2269 O.3     1  LIG1       -0.3942
     23 S           4.9449    5.3453   -8.9794 S.O2    1  LIG1        0.0735
     24 O           6.0544    5.4249   -8.0525 O.2     1  LIG1       -0.1499
     25 O           5.1129    4.8189  -10.3183 O.2     1  LIG1       -0.1499
     26 N           3.6527    4.4711   -8.2968 N.pl3   1  LIG1       -0.1988
     27 C           4.4319    2.9086   -6.5601 C.ar    1  LIG1        0.0847
     28 C           4.6706    2.8393   -5.1918 C.ar    1  LIG1        0.2276
     29 N           4.3879    3.8219   -4.3090 N.ar    1  LIG1       -0.2008
     30 C           3.8329    4.9235   -4.8197 C.ar    1  LIG1        0.1219
     31 N           3.5342    5.1285   -6.1053 N.ar    1  LIG1       -0.2186
     32 C           3.8719    4.1252   -6.9334 C.ar    1  LIG1        0.1524
     33 C           4.8933   -1.8476   -9.8730 C.3     1  LIG1       -0.0397
     34 O           5.2758    1.7030   -4.6934 O.3     1  LIG1       -0.4724
     35 C           4.8715    1.3495   -3.3683 C.3     1  LIG1        0.1252
     36 C           5.8102    1.9011   -2.2945 C.3     1  LIG1        0.1267
     37 O           7.0945    1.2874   -2.4367 O.3     1  LIG1       -0.4590
     38 C           7.9368    1.5535   -1.3803 C.ar    1  LIG1        0.3180
     39 BR         10.8529    2.0633    2.1131 Br      1  LIG1       -0.0472
     40 H          11.1286    1.3550   -0.8117 H       1  LIG1        0.0843
     41 H           7.8645    2.3091    1.7807 H       1  LIG1        0.0843
     42 H           6.8315   -0.6976   -8.3056 H       1  LIG1        0.0620
     43 H           6.6626    1.3289   -6.9452 H       1  LIG1        0.0624
     44 H           2.5820    1.8437   -8.2600 H       1  LIG1        0.0624
     45 H           2.7721   -0.1615   -9.6371 H       1  LIG1        0.0620
     46 H           4.8446    9.6165  -11.2991 H       1  LIG1        0.0621
     47 H           5.7033    7.3966  -10.8121 H       1  LIG1        0.0637
     48 H           2.8296    6.9803   -7.6131 H       1  LIG1        0.0637
     49 H           1.9334    9.1637   -8.1285 H       1  LIG1        0.0621
     50 H           2.3158   11.5324   -8.0005 H       1  LIG1        0.0239
     51 H           2.4838   12.9025   -9.0968 H       1  LIG1        0.0239
     52 H           3.9123   11.9759   -8.6023 H       1  LIG1        0.0239
     53 H           2.6514   12.5506  -11.6251 H       1  LIG1        0.0566
     54 H           3.1871   10.9931  -12.2404 H       1  LIG1        0.0566
     55 H           0.9635   10.0907  -11.1840 H       1  LIG1        0.0239
     56 H           0.6807   11.7488  -10.6299 H       1  LIG1        0.0239
     57 H           0.6079   10.4188   -9.4835 H       1  LIG1        0.0239
     58 H           4.6075   12.8203  -10.5907 H       1  LIG1        0.2094
     59 H           2.7807    4.9798   -8.3952 H       1  LIG1        0.1753
     60 H           3.6049    5.7254   -4.1258 H       1  LIG1        0.1049
     61 H           5.7276   -2.4781   -9.5487 H       1  LIG1        0.0278
     62 H           5.0329   -1.5975  -10.9287 H       1  LIG1        0.0278
     63 H           3.9784   -2.4405   -9.7640 H       1  LIG1        0.0278
     64 H           4.9032    0.2542   -3.3325 H       1  LIG1        0.0731
     65 H           3.8309    1.6387   -3.1733 H       1  LIG1        0.0731
     66 H           5.3614    1.6532   -1.3252 H       1  LIG1        0.0732
     67 H           5.9256    2.9863   -2.3836 H       1  LIG1        0.0732
@<TRIPOS>BOND
     1     1     2   ar
     2     2     3   ar
     3     2    39    1
     4     3     4   ar
     5     4    38   ar
     6     5     1   ar
     7     6     7   ar
     8     6    33    1
     9     7     8   ar
    10     8     9   ar
    11     9    10   ar
    12    10    11   ar
    13    11     6   ar
    14    12    13   ar
    15    13    14   ar
    16    14    15   ar
    17    15    16   ar
    18    16    18   ar
    19    17    18    1
    20    17    21    1
    21    17    20    1
    22    17    19    1
    23    18    12   ar
    24    20    22    1
    25    23    26    1
    26    23    25    2
    27    23    24    2
    28    23    14    1
    29    26    32    1
    30    27    28   ar
    31    27     9    1
    32    28    29   ar
    33    29    30   ar
    34    30    31   ar
    35    31    32   ar
    36    32    27   ar
    37    34    35    1
    38    34    28    1
    39    35    36    1
    40    36    37    1
    41    37    38    1
    42    38     5   ar
    43     1    40    1
    44     3    41    1
    45     7    42    1
    46     8    43    1
    47    10    44    1
    48    11    45    1
    49    12    46    1
    50    13    47    1
    51    15    48    1
    52    16    49    1
    53    19    50    1
    54    19    51    1
    55    19    52    1
    56    20    53    1
    57    20    54    1
    58    21    55    1
    59    21    56    1
    60    21    57    1
    61    22    58    1
    62    26    59    1
    63    30    60    1
    64    33    61    1
    65    33    62    1
    66    33    63    1
    67    35    64    1
    68    35    65    1
    69    36    66    1
    70    36    67    1
@<TRIPOS>MOLECULE
*****
 67 70 0 0 0
SMALL
GASTEIGER

@<TRIPOS>ATOM
      1 C          10.0585    1.5205   -0.6237 C.ar    1  LIG1        0.0483
      2 C           9.6058    1.8938    0.6199 C.ar    1  LIG1        0.0543
      3 C           8.2469    2.0772    0.7246 C.ar    1  LIG1        0.0483
      4 N           7.3893    1.9085   -0.3056 N.ar    1  LIG1       -0.2022
      5 N           9.2466    1.3268   -1.6852 N.ar    1  LIG1       -0.2022
      6 C           6.0259    0.1337   -9.6107 C.ar    1  LIG1       -0.0504
      7 C           4.8002    0.7793   -9.7763 C.ar    1  LIG1       -0.0583
      8 C           4.3404    1.6892   -8.8159 C.ar    1  LIG1       -0.0535
      9 C           5.0907    2.0001   -7.6657 C.ar    1  LIG1       -0.0094
     10 C           6.3250    1.3422   -7.5231 C.ar    1  LIG1       -0.0535
     11 C           6.7785    0.4111   -8.4681 C.ar    1  LIG1       -0.0583
     12 C           2.7568    8.5493  -10.2563 C.ar    1  LIG1       -0.0561
     13 C           3.4470    7.6994   -9.3857 C.ar    1  LIG1       -0.0348
     14 C           4.2215    6.6596   -9.9023 C.ar    1  LIG1        0.1086
     15 C           4.3420    6.4857  -11.2773 C.ar    1  LIG1       -0.0348
     16 C           3.6577    7.3487  -12.1395 C.ar    1  LIG1       -0.0561
     17 C           2.0868    9.3117  -12.6369 C.3     1  LIG1        0.0132
     18 C           2.8373    8.3892  -11.6518 C.ar    1  LIG1       -0.0394
     19 C           1.0977   10.2801  -11.9444 C.3     1  LIG1       -0.0537
     20 C           3.0982   10.1398  -13.4793 C.3     1  LIG1        0.0533
     21 C           1.2411    8.4492  -13.6064 C.3     1  LIG1       -0.0537
     22 O           3.8825   11.0302  -12.6910 O.3     1  LIG1       -0.3942
     23 S           5.0469    5.5521   -8.7765 S.O2    1  LIG1        0.0735
     24 O           5.5684    6.3695   -7.7005 O.2     1  LIG1       -0.1499
     25 O           5.8998    4.6828   -9.5534 O.2     1  LIG1       -0.1499
     26 N           3.7106    4.6595   -8.2256 N.pl3   1  LIG1       -0.1988
     27 C           4.5740    2.9407   -6.6402 C.ar    1  LIG1        0.0847
     28 C           4.6176    2.6964   -5.2669 C.ar    1  LIG1        0.2276
     29 N           4.0798    3.4987   -4.3193 N.ar    1  LIG1       -0.2008
     30 C           3.4474    4.5867   -4.7568 C.ar    1  LIG1        0.1219
     31 N           3.2975    4.9353   -6.0325 N.ar    1  LIG1       -0.2186
     32 C           3.8878    4.1171   -6.9247 C.ar    1  LIG1        0.1524
     33 C           6.4910   -0.8800  -10.6125 C.3     1  LIG1       -0.0397
     34 O           5.2599    1.5564   -4.8229 O.3     1  LIG1       -0.4724
     35 C           4.9151    1.1353   -3.4983 C.3     1  LIG1        0.1252
     36 C           5.8009    1.7674   -2.4214 C.3     1  LIG1        0.1267
     37 O           7.1286    1.2510   -2.5539 O.3     1  LIG1       -0.4590
     38 C           7.9376    1.5372   -1.4770 C.ar    1  LIG1        0.3180
     39 BR         10.7617    2.1256    2.0803 Br      1  LIG1       -0.0472
     40 H          11.1132    1.3514   -0.8195 H       1  LIG1        0.0843
     41 H           7.7828    2.3660    1.6633 H       1  LIG1        0.0843
     42 H           4.1892    0.5800  -10.6537 H       1  LIG1        0.0620
     43 H           3.3709    2.1517   -8.9865 H       1  LIG1        0.0624
     44 H           6.9594    1.5364   -6.6596 H       1  LIG1        0.0624
     45 H           7.7288   -0.0910   -8.2997 H       1  LIG1        0.0620
     46 H           2.1653    9.3439   -9.8097 H       1  LIG1        0.0621
     47 H           3.3771    7.8591   -8.3114 H       1  LIG1        0.0637
     48 H           4.9612    5.6913  -11.6887 H       1  LIG1        0.0637
     49 H           3.7829    7.1971  -13.2099 H       1  LIG1        0.0621
     50 H           0.3271    9.7322  -11.3887 H       1  LIG1        0.0239
     51 H           0.5824   10.9076  -12.6817 H       1  LIG1        0.0239
     52 H           1.5957   10.9569  -11.2422 H       1  LIG1        0.0239
     53 H           2.5751   10.7406  -14.2330 H       1  LIG1        0.0566
     54 H           3.7934    9.4895  -14.0209 H       1  LIG1        0.0566
     55 H           1.8606    7.8100  -14.2447 H       1  LIG1        0.0239
     56 H           0.6435    9.0794  -14.2761 H       1  LIG1        0.0239
     57 H           0.5502    7.7983  -13.0573 H       1  LIG1        0.0239
     58 H           3.2990   11.7236  -12.3426 H       1  LIG1        0.2094
     59 H           2.8832    5.2523   -8.2059 H       1  LIG1        0.1753
     60 H           3.0151    5.2427   -4.0093 H       1  LIG1        0.1049
     61 H           6.2237   -0.5716  -11.6289 H       1  LIG1        0.0278
     62 H           6.0308   -1.8510  -10.4040 H       1  LIG1        0.0278
     63 H           7.5796   -0.9944  -10.5832 H       1  LIG1        0.0278
     64 H           5.0663    0.0497   -3.4834 H       1  LIG1        0.0731
     65 H           3.8508    1.3012   -3.2890 H       1  LIG1        0.0731
     66 H           5.3664    1.4938   -1.4526 H       1  LIG1        0.0732
     67 H           5.8382    2.8576   -2.5179 H       1  LIG1        0.0732
@<TRIPOS>BOND
     1     1     2   ar
     2     2     3   ar
     3     2    39    1
     4     3     4   ar
     5     4    38   ar
     6     5     1   ar
     7     6     7   ar
     8     6    33    1
     9     7     8   ar
    10     8     9   ar
    11     9    10   ar
    12    10    11   ar
    13    11     6   ar
    14    12    13   ar
    15    13    14   ar
    16    14    15   ar
    17    15    16   ar
    18    16    18   ar
    19    17    18    1
    20    17    21    1
    21    17    20    1
    22    17    19    1
    23    18    12   ar
    24    20    22    1
    25    23    26    1
    26    23    25    2
    27    23    24    2
    28    23    14    1
    29    26    32    1
    30    27    28   ar
    31    27     9    1
    32    28    29   ar
    33    29    30   ar
    34    30    31   ar
    35    31    32   ar
    36    32    27   ar
    37    34    35    1
    38    34    28    1
    39    35    36    1
    40    36    37    1
    41    37    38    1
    42    38     5   ar
    43     1    40    1
    44     3    41    1
    45     7    42    1
    46     8    43    1
    47    10    44    1
    48    11    45    1
    49    12    46    1
    50    13    47    1
    51    15    48    1
    52    16    49    1
    53    19    50    1
    54    19    51    1
    55    19    52    1
    56    20    53    1
    57    20    54    1
    58    21    55    1
    59    21    56    1
    60    21    57    1
    61    22    58    1
    62    26    59    1
    63    30    60    1
    64    33    61    1
    65    33    62    1
    66    33    63    1
    67    35    64    1
    68    35    65    1
    69    36    66    1
    70    36    67    1
@<TRIPOS>MOLECULE
*****
 67 70 0 0 0
SMALL
GASTEIGER

@<TRIPOS>ATOM
      1 C          10.0065    3.1873   -1.0095 C.ar    1  LIG1        0.0483
      2 C          10.1667    4.5520   -0.9426 C.ar    1  LIG1        0.0543
      3 C           9.3713    5.2841   -1.7916 C.ar    1  LIG1        0.0483
      4 N           8.4735    4.7291   -2.6317 N.ar    1  LIG1       -0.2022
      5 N           9.1286    2.5772   -1.8361 N.ar    1  LIG1       -0.2022
      6 C           5.8848    0.0732   -9.6033 C.ar    1  LIG1       -0.0504
      7 C           4.6214    0.6674   -9.6571 C.ar    1  LIG1       -0.0583
      8 C           4.2221    1.5815   -8.6747 C.ar    1  LIG1       -0.0535
      9 C           5.0741    1.9369   -7.6151 C.ar    1  LIG1       -0.0094
     10 C           6.3408    1.3274   -7.5775 C.ar    1  LIG1       -0.0535
     11 C           6.7364    0.3989   -8.5463 C.ar    1  LIG1       -0.0583
     12 C           5.2716    3.8140  -12.5938 C.ar    1  LIG1       -0.0561
     13 C           5.5324    4.0843  -11.2469 C.ar    1  LIG1       -0.0348
     14 C           4.7800    5.0454  -10.5817 C.ar    1  LIG1        0.1086
     15 C           3.7846    5.7550  -11.2603 C.ar    1  LIG1       -0.0348
     16 C           3.5225    5.4668  -12.6036 C.ar    1  LIG1       -0.0561
     17 C           3.9789    4.1638  -14.7892 C.3     1  LIG1        0.0132
     18 C           4.2460    4.4796  -13.2994 C.ar    1  LIG1       -0.0394
     19 C           5.0660    4.8606  -15.6343 C.3     1  LIG1       -0.0537
     20 C           4.0262    2.6270  -15.0453 C.3     1  LIG1        0.0533
     21 C           2.6058    4.6885  -15.2797 C.3     1  LIG1       -0.0537
     22 O           3.7304    2.2778  -16.3961 O.3     1  LIG1       -0.3942
     23 S           5.1012    5.4195   -8.8751 S.O2    1  LIG1        0.0735
     24 O           4.8756    6.8409   -8.7043 O.2     1  LIG1       -0.1499
     25 O           6.3546    4.7985   -8.5074 O.2     1  LIG1       -0.1499
     26 N           3.7931    4.6245   -8.1487 N.pl3   1  LIG1       -0.1988
     27 C           4.6637    2.9077   -6.5773 C.ar    1  LIG1        0.0847
     28 C           4.7907    2.6746   -5.2102 C.ar    1  LIG1        0.2276
     29 N           4.3999    3.5364   -4.2468 N.ar    1  LIG1       -0.2008
     30 C           3.8755    4.6905   -4.6603 C.ar    1  LIG1        0.1219
     31 N           3.6623    5.0369   -5.9298 N.ar    1  LIG1       -0.2186
     32 C           4.0735    4.1389   -6.8408 C.ar    1  LIG1        0.1524
     33 C           6.2932   -0.9366  -10.6336 C.3     1  LIG1       -0.0397
     34 O           5.2657    1.4361   -4.8145 O.3     1  LIG1       -0.4724
     35 C           5.6073    1.2972   -3.4323 C.3     1  LIG1        0.1252
     36 C           7.1070    1.4998   -3.2117 C.3     1  LIG1        0.1267
     37 O           7.4327    2.8687   -3.4463 O.3     1  LIG1       -0.4590
     38 C           8.3851    3.3905   -2.6072 C.ar    1  LIG1        0.3180
     39 BR         11.3815    5.3611    0.2366 Br      1  LIG1       -0.0472
     40 H          10.5860    2.5162   -0.3823 H       1  LIG1        0.0843
     41 H           9.4190    6.3683   -1.8283 H       1  LIG1        0.0843
     42 H           3.9346    0.4227  -10.4642 H       1  LIG1        0.0620
     43 H           3.2262    2.0138   -8.7499 H       1  LIG1        0.0624
     44 H           7.0434    1.5744   -6.7826 H       1  LIG1        0.0624
     45 H           7.7187   -0.0610   -8.4655 H       1  LIG1        0.0620
     46 H           5.9020    3.0749  -13.0838 H       1  LIG1        0.0621
     47 H           6.3235    3.5422  -10.7309 H       1  LIG1        0.0637
     48 H           3.2162    6.5313  -10.7573 H       1  LIG1        0.0637
     49 H           2.7436    6.0489  -13.0891 H       1  LIG1        0.0621
     50 H           5.0644    5.9444  -15.4657 H       1  LIG1        0.0239
     51 H           4.9095    4.6937  -16.7060 H       1  LIG1        0.0239
     52 H           6.0682    4.4932  -15.3856 H       1  LIG1        0.0239
     53 H           3.3230    2.0959  -14.3925 H       1  LIG1        0.0566
     54 H           5.0222    2.2206  -14.8459 H       1  LIG1        0.0566
     55 H           1.7856    4.2587  -14.6929 H       1  LIG1        0.0239
     56 H           2.4265    4.4416  -16.3320 H       1  LIG1        0.0239
     57 H           2.5362    5.7801  -15.2149 H       1  LIG1        0.0239
     58 H           2.7629    2.2678  -16.4926 H       1  LIG1        0.2094
     59 H           3.0823    5.3475   -8.0140 H       1  LIG1        0.1753
     60 H           3.5862    5.4037   -3.8964 H       1  LIG1        0.1049
     61 H           5.9829   -0.6136  -11.6328 H       1  LIG1        0.0278
     62 H           5.8348   -1.9053  -10.4115 H       1  LIG1        0.0278
     63 H           7.3808   -1.0634  -10.6551 H       1  LIG1        0.0278
     64 H           5.3566    0.2652   -3.1619 H       1  LIG1        0.0731
     65 H           5.0199    1.9370   -2.7646 H       1  LIG1        0.0731
     66 H           7.6807    0.8900   -3.9189 H       1  LIG1        0.0732
     67 H           7.3279    1.1716   -2.1896 H       1  LIG1        0.0732
@<TRIPOS>BOND
     1     1     2   ar
     2     2     3   ar
     3     2    39    1
     4     3     4   ar
     5     4    38   ar
     6     5     1   ar
     7     6     7   ar
     8     6    33    1
     9     7     8   ar
    10     8     9   ar
    11     9    10   ar
    12    10    11   ar
    13    11     6   ar
    14    12    13   ar
    15    13    14   ar
    16    14    15   ar
    17    15    16   ar
    18    16    18   ar
    19    17    18    1
    20    17    21    1
    21    17    20    1
    22    17    19    1
    23    18    12   ar
    24    20    22    1
    25    23    26    1
    26    23    25    2
    27    23    24    2
    28    23    14    1
    29    26    32    1
    30    27    28   ar
    31    27     9    1
    32    28    29   ar
    33    29    30   ar
    34    30    31   ar
    35    31    32   ar
    36    32    27   ar
    37    34    35    1
    38    34    28    1
    39    35    36    1
    40    36    37    1
    41    37    38    1
    42    38     5   ar
    43     1    40    1
    44     3    41    1
    45     7    42    1
    46     8    43    1
    47    10    44    1
    48    11    45    1
    49    12    46    1
    50    13    47    1
    51    15    48    1
    52    16    49    1
    53    19    50    1
    54    19    51    1
    55    19    52    1
    56    20    53    1
    57    20    54    1
    58    21    55    1
    59    21    56    1
    60    21    57    1
    61    22    58    1
    62    26    59    1
    63    30    60    1
    64    33    61    1
    65    33    62    1
    66    33    63    1
    67    35    64    1
    68    35    65    1
    69    36    66    1
    70    36    67    1
@<TRIPOS>MOLECULE
*****
 67 70 0 0 0
SMALL
GASTEIGER

@<TRIPOS>ATOM
      1 C          11.6308    1.1680   -5.3780 C.ar    1  LIG1        0.0483
      2 C          12.2691    2.0761   -4.5672 C.ar    1  LIG1        0.0543
      3 C          11.4461    2.8481   -3.7800 C.ar    1  LIG1        0.0483
      4 N          10.0986    2.7396   -3.7741 N.ar    1  LIG1       -0.2022
      5 N          10.2907    1.0107   -5.4076 N.ar    1  LIG1       -0.2022
      6 C           6.0833   -0.0323   -9.6181 C.ar    1  LIG1       -0.0504
      7 C           5.3909    1.1108   -9.9876 C.ar    1  LIG1       -0.0583
      8 C           4.9575    2.0318   -9.0163 C.ar    1  LIG1       -0.0535
      9 C           5.1742    1.8813   -7.6330 C.ar    1  LIG1       -0.0094
     10 C           5.8925    0.7092   -7.3099 C.ar    1  LIG1       -0.0535
     11 C           6.3323   -0.2258   -8.2662 C.ar    1  LIG1       -0.0583
     12 C           3.5881    5.0368  -12.4526 C.ar    1  LIG1       -0.0561
     13 C           3.5153    5.0290  -11.0556 C.ar    1  LIG1       -0.0348
     14 C           2.3522    4.5916  -10.4216 C.ar    1  LIG1        0.1086
     15 C           1.2574    4.1802  -11.1783 C.ar    1  LIG1       -0.0348
     16 C           1.3351    4.2033  -12.5753 C.ar    1  LIG1       -0.0561
     17 C           2.5638    4.6225  -14.7876 C.3     1  LIG1        0.0132
     18 C           2.5058    4.6171  -13.2454 C.ar    1  LIG1       -0.0394
     19 C           3.9690    4.9499  -15.3497 C.3     1  LIG1       -0.0537
     20 C           2.1133    3.2562  -15.3839 C.3     1  LIG1        0.0533
     21 C           1.6032    5.7175  -15.3040 C.3     1  LIG1       -0.0537
     22 O           2.9458    2.1724  -14.9809 O.3     1  LIG1       -0.3942
     23 S           2.2370    4.5092   -8.6444 S.O2    1  LIG1        0.0735
     24 O           1.7774    3.1807   -8.3080 O.2     1  LIG1       -0.1499
     25 O           1.5353    5.7057   -8.2339 O.2     1  LIG1       -0.1499
     26 N           3.8640    4.6918   -8.1584 N.pl3   1  LIG1       -0.1988
     27 C           4.7008    2.8927   -6.5986 C.ar    1  LIG1        0.0847
     28 C           4.8437    2.7456   -5.2084 C.ar    1  LIG1        0.2276
     29 N           4.4729    3.6472   -4.2645 N.ar    1  LIG1       -0.2008
     30 C           3.9372    4.7781   -4.6976 C.ar    1  LIG1        0.1219
     31 N           3.7695    5.0906   -5.9730 N.ar    1  LIG1       -0.2186
     32 C           4.1286    4.1454   -6.8678 C.ar    1  LIG1        0.1524
     33 C           6.5574   -1.0259  -10.6320 C.3     1  LIG1       -0.0397
     34 O           5.3553    1.5802   -4.6904 O.3     1  LIG1       -0.4724
     35 C           6.1103    1.7239   -3.4789 C.3     1  LIG1        0.1252
     36 C           7.4742    2.3863   -3.7047 C.3     1  LIG1        0.1267
     37 O           8.2284    1.5601   -4.5948 O.3     1  LIG1       -0.4590
     38 C           9.5807    1.8069   -4.5930 C.ar    1  LIG1        0.3180
     39 BR         14.1381    2.2411   -4.5267 Br      1  LIG1       -0.0472
     40 H          12.1820    0.5107   -6.0443 H       1  LIG1        0.0843
     41 H          11.8481    3.5948   -3.1011 H       1  LIG1        0.0843
     42 H           5.1689    1.3095  -11.0344 H       1  LIG1        0.0620
     43 H           4.4328    2.8800   -9.4206 H       1  LIG1        0.0624
     44 H           6.1644    0.4530   -6.2935 H       1  LIG1        0.0624
     45 H           6.8761   -1.1057   -7.9280 H       1  LIG1        0.0620
     46 H           4.5195    5.3764  -12.8978 H       1  LIG1        0.0621
     47 H           4.3842    5.3556  -10.4922 H       1  LIG1        0.0637
     48 H           0.3454    3.8387  -10.6928 H       1  LIG1        0.0637
     49 H           0.4590    3.8830  -13.1355 H       1  LIG1        0.0621
     50 H           4.2818    5.9675  -15.0867 H       1  LIG1        0.0239
     51 H           3.9788    4.8878  -16.4444 H       1  LIG1        0.0239
     52 H           4.7334    4.2595  -14.9759 H       1  LIG1        0.0239
     53 H           2.1246    3.2904  -16.4801 H       1  LIG1        0.0566
     54 H           1.0883    3.0040  -15.0944 H       1  LIG1        0.0566
     55 H           0.5635    5.5166  -15.0225 H       1  LIG1        0.0239
     56 H           1.6366    5.7889  -16.3975 H       1  LIG1        0.0239
     57 H           1.8685    6.7013  -14.8985 H       1  LIG1        0.0239
     58 H           3.8276    2.3081  -15.3639 H       1  LIG1        0.2094
     59 H           3.9551    5.7012   -8.0133 H       1  LIG1        0.1753
     60 H           3.6196    5.5014   -3.9554 H       1  LIG1        0.1049
     61 H           6.2689   -0.7328  -11.6469 H       1  LIG1        0.0278
     62 H           6.1218   -2.0098  -10.4310 H       1  LIG1        0.0278
     63 H           7.6490   -1.1024  -10.6027 H       1  LIG1        0.0278
     64 H           6.2802    0.7025   -3.1185 H       1  LIG1        0.0731
     65 H           5.5366    2.2350   -2.6972 H       1  LIG1        0.0731
     66 H           7.9615    2.4741   -2.7262 H       1  LIG1        0.0732
     67 H           7.3649    3.3800   -4.1532 H       1  LIG1        0.0732
@<TRIPOS>BOND
     1     1     2   ar
     2     2     3   ar
     3     2    39    1
     4     3     4   ar
     5     4    38   ar
     6     5     1   ar
     7     6     7   ar
     8     6    33    1
     9     7     8   ar
    10     8     9   ar
    11     9    10   ar
    12    10    11   ar
    13    11     6   ar
    14    12    13   ar
    15    13    14   ar
    16    14    15   ar
    17    15    16   ar
    18    16    18   ar
    19    17    18    1
    20    17    21    1
    21    17    20    1
    22    17    19    1
    23    18    12   ar
    24    20    22    1
    25    23    26    1
    26    23    25    2
    27    23    24    2
    28    23    14    1
    29    26    32    1
    30    27    28   ar
    31    27     9    1
    32    28    29   ar
    33    29    30   ar
    34    30    31   ar
    35    31    32   ar
    36    32    27   ar
    37    34    35    1
    38    34    28    1
    39    35    36    1
    40    36    37    1
    41    37    38    1
    42    38     5   ar
    43     1    40    1
    44     3    41    1
    45     7    42    1
    46     8    43    1
    47    10    44    1
    48    11    45    1
    49    12    46    1
    50    13    47    1
    51    15    48    1
    52    16    49    1
    53    19    50    1
    54    19    51    1
    55    19    52    1
    56    20    53    1
    57    20    54    1
    58    21    55    1
    59    21    56    1
    60    21    57    1
    61    22    58    1
    62    26    59    1
    63    30    60    1
    64    33    61    1
    65    33    62    1
    66    33    63    1
    67    35    64    1
    68    35    65    1
    69    36    66    1
    70    36    67    1
@<TRIPOS>MOLECULE
*****
 67 70 0 0 0
SMALL
GASTEIGER

@<TRIPOS>ATOM
      1 C           6.6873   -3.3089   -0.2585 C.ar    1  LIG1        0.0483
      2 C           6.9398   -4.2659   -1.2141 C.ar    1  LIG1        0.0543
      3 C           6.5169   -3.9603   -2.4868 C.ar    1  LIG1        0.0483
      4 N           5.9052   -2.8008   -2.8106 N.ar    1  LIG1       -0.2022
      5 N           6.0789   -2.1333   -0.5233 N.ar    1  LIG1       -0.2022
      6 C           5.8730    0.1040   -9.7092 C.ar    1  LIG1       -0.0504
      7 C           5.8207    1.4697   -9.9804 C.ar    1  LIG1       -0.0583
      8 C           5.4186    2.3829   -8.9937 C.ar    1  LIG1       -0.0535
      9 C           5.0242    1.9754   -7.7046 C.ar    1  LIG1       -0.0094
     10 C           5.0471    0.5843   -7.4771 C.ar    1  LIG1       -0.0535
     11 C           5.4916   -0.3317   -8.4423 C.ar    1  LIG1       -0.0583
     12 C           0.7281    1.1837   -6.4499 C.ar    1  LIG1       -0.0561
     13 C           1.3270    1.9699   -7.4388 C.ar    1  LIG1       -0.0348
     14 C           1.3364    3.3567   -7.3085 C.ar    1  LIG1        0.1086
     15 C           0.7135    3.9666   -6.2203 C.ar    1  LIG1       -0.0348
     16 C           0.1227    3.1724   -5.2342 C.ar    1  LIG1       -0.0561
     17 C          -0.5511    0.9218   -4.2163 C.3     1  LIG1        0.0132
     18 C           0.1168    1.7647   -5.3239 C.ar    1  LIG1       -0.0394
     19 C          -0.5417   -0.5981   -4.5065 C.3     1  LIG1       -0.0537
     20 C           0.1486    1.1687   -2.8498 C.3     1  LIG1        0.0533
     21 C          -2.0356    1.3397   -4.0888 C.3     1  LIG1       -0.0537
     22 O           1.5012    0.7186   -2.8392 O.3     1  LIG1       -0.3942
     23 S           2.0677    4.3528   -8.5809 S.O2    1  LIG1        0.0735
     24 O           1.3839    5.6286   -8.5829 O.2     1  LIG1       -0.1499
     25 O           2.1250    3.5586   -9.7943 O.2     1  LIG1       -0.1499
     26 N           3.6619    4.6973   -8.1264 N.pl3   1  LIG1       -0.1988
     27 C           4.6560    2.9599   -6.6378 C.ar    1  LIG1        0.0847
     28 C           4.8822    2.7646   -5.2721 C.ar    1  LIG1        0.2276
     29 N           4.6404    3.6702   -4.2973 N.ar    1  LIG1       -0.2008
     30 C           4.1161    4.8283   -4.6822 C.ar    1  LIG1        0.1219
     31 N           3.8204    5.1561   -5.9371 N.ar    1  LIG1       -0.2186
     32 C           4.0912    4.2164   -6.8635 C.ar    1  LIG1        0.1524
     33 C           6.3937   -0.8597  -10.7328 C.3     1  LIG1       -0.0397
     34 O           5.4809    1.5935   -4.8600 O.3     1  LIG1       -0.4724
     35 C           5.1270    1.2076   -3.5273 C.3     1  LIG1        0.1252
     36 C           5.3648   -0.2938   -3.4056 C.3     1  LIG1        0.1267
     37 O           5.1547   -0.7030   -2.0569 O.3     1  LIG1       -0.4590
     38 C           5.7317   -1.9263   -1.8018 C.ar    1  LIG1        0.3180
     39 BR          7.8107   -5.8782   -0.8105 Br      1  LIG1       -0.0472
     40 H           6.9759   -3.4490    0.7791 H       1  LIG1        0.0843
     41 H           6.6623   -4.6475   -3.3153 H       1  LIG1        0.0843
     42 H           6.1062    1.8452  -10.9612 H       1  LIG1        0.0620
     43 H           5.4391    3.4349   -9.2690 H       1  LIG1        0.0624
     44 H           4.7334    0.1671   -6.5237 H       1  LIG1        0.0624
     45 H           5.5403   -1.3882   -8.1871 H       1  LIG1        0.0620
     46 H           0.7526    0.1071   -6.5920 H       1  LIG1        0.0621
     47 H           1.7845    1.4889   -8.3021 H       1  LIG1        0.0637
     48 H           0.6933    5.0499   -6.1252 H       1  LIG1        0.0637
     49 H          -0.3391    3.6765   -4.3868 H       1  LIG1        0.0621
     50 H          -1.0961   -0.8336   -5.4228 H       1  LIG1        0.0239
     51 H          -1.0151   -1.1558   -3.6897 H       1  LIG1        0.0239
     52 H           0.4739   -0.9926   -4.6196 H       1  LIG1        0.0239
     53 H          -0.3805    0.6495   -2.0414 H       1  LIG1        0.0566
     54 H           0.1573    2.2317   -2.5868 H       1  LIG1        0.0566
     55 H          -2.1484    2.3804   -3.7660 H       1  LIG1        0.0239
     56 H          -2.5583    0.7192   -3.3511 H       1  LIG1        0.0239
     57 H          -2.5608    1.2323   -5.0454 H       1  LIG1        0.0239
     58 H           1.4921   -0.2493   -2.7513 H       1  LIG1        0.2094
     59 H           3.6947    5.7168   -8.0665 H       1  LIG1        0.1753
     60 H           3.9117    5.5628   -3.9116 H       1  LIG1        0.1049
     61 H           6.0729   -0.5699  -11.7389 H       1  LIG1        0.0278
     62 H           6.0193   -1.8724  -10.5500 H       1  LIG1        0.0278
     63 H           7.4878   -0.8821  -10.7022 H       1  LIG1        0.0278
     64 H           4.0750    1.4197   -3.2998 H       1  LIG1        0.0731
     65 H           5.7542    1.7458   -2.8061 H       1  LIG1        0.0731
     66 H           6.3883   -0.5092   -3.7421 H       1  LIG1        0.0732
     67 H           4.6681   -0.8241   -4.0681 H       1  LIG1        0.0732
@<TRIPOS>BOND
     1     1     2   ar
     2     2     3   ar
     3     2    39    1
     4     3     4   ar
     5     4    38   ar
     6     5     1   ar
     7     6     7   ar
     8     6    33    1
     9     7     8   ar
    10     8     9   ar
    11     9    10   ar
    12    10    11   ar
    13    11     6   ar
    14    12    13   ar
    15    13    14   ar
    16    14    15   ar
    17    15    16   ar
    18    16    18   ar
    19    17    18    1
    20    17    21    1
    21    17    20    1
    22    17    19    1
    23    18    12   ar
    24    20    22    1
    25    23    26    1
    26    23    25    2
    27    23    24    2
    28    23    14    1
    29    26    32    1
    30    27    28   ar
    31    27     9    1
    32    28    29   ar
    33    29    30   ar
    34    30    31   ar
    35    31    32   ar
    36    32    27   ar
    37    34    35    1
    38    34    28    1
    39    35    36    1
    40    36    37    1
    41    37    38    1
    42    38     5   ar
    43     1    40    1
    44     3    41    1
    45     7    42    1
    46     8    43    1
    47    10    44    1
    48    11    45    1
    49    12    46    1
    50    13    47    1
    51    15    48    1
    52    16    49    1
    53    19    50    1
    54    19    51    1
    55    19    52    1
    56    20    53    1
    57    20    54    1
    58    21    55    1
    59    21    56    1
    60    21    57    1
    61    22    58    1
    62    26    59    1
    63    30    60    1
    64    33    61    1
    65    33    62    1
    66    33    63    1
    67    35    64    1
    68    35    65    1
    69    36    66    1
    70    36    67    1
@<TRIPOS>MOLECULE
*****
 67 70 0 0 0
SMALL
GASTEIGER

@<TRIPOS>ATOM
      1 C           9.9995    3.1846   -1.0012 C.ar    1  LIG1        0.0483
      2 C          10.1528    4.5501   -0.9343 C.ar    1  LIG1        0.0543
      3 C           9.3667    5.2772   -1.7961 C.ar    1  LIG1        0.0483
      4 N           8.4842    4.7169   -2.6488 N.ar    1  LIG1       -0.2022
      5 N           9.1367    2.5693   -1.8397 N.ar    1  LIG1       -0.2022
      6 C           5.8895    0.0617   -9.5997 C.ar    1  LIG1       -0.0504
      7 C           4.6327    0.6674   -9.6678 C.ar    1  LIG1       -0.0583
      8 C           4.2287    1.5820   -8.6875 C.ar    1  LIG1       -0.0535
      9 C           5.0700    1.9289   -7.6162 C.ar    1  LIG1       -0.0094
     10 C           6.3302    1.3063   -7.5641 C.ar    1  LIG1       -0.0535
     11 C           6.7292    0.3756   -8.5297 C.ar    1  LIG1       -0.0583
     12 C           3.6118    5.3671  -12.6403 C.ar    1  LIG1       -0.0561
     13 C           3.8318    5.6877  -11.2972 C.ar    1  LIG1       -0.0348
     14 C           4.8253    5.0190  -10.5835 C.ar    1  LIG1        0.1086
     15 C           5.6098    4.0528  -11.2071 C.ar    1  LIG1       -0.0348
     16 C           5.3911    3.7481  -12.5558 C.ar    1  LIG1       -0.0561
     17 C           4.1193    4.0550  -14.7889 C.3     1  LIG1        0.0132
     18 C           4.3946    4.4017  -13.3073 C.ar    1  LIG1       -0.0394
     19 C           2.8595    3.1643  -14.8468 C.3     1  LIG1       -0.0537
     20 C           3.8808    5.3463  -15.6288 C.3     1  LIG1        0.0533
     21 C           5.2756    3.2630  -15.4483 C.3     1  LIG1       -0.0537
     22 O           3.6596    5.0746  -17.0115 O.3     1  LIG1       -0.3942
     23 S           5.0965    5.4285   -8.8737 S.O2    1  LIG1        0.0735
     24 O           4.8353    6.8453   -8.7329 O.2     1  LIG1       -0.1499
     25 O           6.3537    4.8406   -8.4669 O.2     1  LIG1       -0.1499
     26 N           3.7894    4.6146   -8.1647 N.pl3   1  LIG1       -0.1988
     27 C           4.6551    2.9038   -6.5827 C.ar    1  LIG1        0.0847
     28 C           4.7817    2.6798   -5.2135 C.ar    1  LIG1        0.2276
     29 N           4.3868    3.5458   -4.2558 N.ar    1  LIG1       -0.2008
     30 C           3.8573    4.6951   -4.6763 C.ar    1  LIG1        0.1219
     31 N           3.6448    5.0335   -5.9478 N.ar    1  LIG1       -0.2186
     32 C           4.0610    4.1324   -6.8532 C.ar    1  LIG1        0.1524
     33 C           6.3026   -0.9484  -10.6279 C.3     1  LIG1       -0.0397
     34 O           5.2584    1.4450   -4.8084 O.3     1  LIG1       -0.4724
     35 C           5.6106    1.3190   -3.4273 C.3     1  LIG1        0.1252
     36 C           7.1171    1.4907   -3.2274 C.3     1  LIG1        0.1267
     37 O           7.4697    2.8495   -3.4818 O.3     1  LIG1       -0.4590
     38 C           8.4011    3.3781   -2.6230 C.ar    1  LIG1        0.3180
     39 BR         11.3479    5.3664    0.2601 Br      1  LIG1       -0.0472
     40 H          10.5730    2.5171   -0.3647 H       1  LIG1        0.0843
     41 H           9.4103    6.3616   -1.8339 H       1  LIG1        0.0843
     42 H           3.9543    0.4330  -10.4852 H       1  LIG1        0.0620
     43 H           3.2375    2.0225   -8.7757 H       1  LIG1        0.0624
     44 H           7.0253    1.5440   -6.7599 H       1  LIG1        0.0624
     45 H           7.7053   -0.0952   -8.4364 H       1  LIG1        0.0620
     46 H           2.8042    5.8856  -13.1522 H       1  LIG1        0.0621
     47 H           3.2213    6.4510  -10.8199 H       1  LIG1        0.0637
     48 H           6.3844    3.5234  -10.6548 H       1  LIG1        0.0637
     49 H           6.0202    2.9777  -12.9937 H       1  LIG1        0.0621
     50 H           2.9903    2.2542  -14.2489 H       1  LIG1        0.0239
     51 H           2.6332    2.8548  -15.8734 H       1  LIG1        0.0239
     52 H           1.9777    3.6863  -14.4579 H       1  LIG1        0.0239
     53 H           4.7296    6.0356  -15.5452 H       1  LIG1        0.0566
     54 H           2.9921    5.8857  -15.2881 H       1  LIG1        0.0566
     55 H           6.2139    3.8286  -15.4103 H       1  LIG1        0.0239
     56 H           5.0671    3.0366  -16.4998 H       1  LIG1        0.0239
     57 H           5.4399    2.2953  -14.9613 H       1  LIG1        0.0239
     58 H           4.5300    4.9797  -17.4347 H       1  LIG1        0.2094
     59 H           3.0652    5.3248   -8.0424 H       1  LIG1        0.1753
     60 H           3.5634    5.4109   -3.9166 H       1  LIG1        0.1049
     61 H           5.9910   -0.6293  -11.6280 H       1  LIG1        0.0278
     62 H           5.8487   -1.9188  -10.4041 H       1  LIG1        0.0278
     63 H           7.3908   -1.0693  -10.6491 H       1  LIG1        0.0278
     64 H           5.3393    0.2973   -3.1382 H       1  LIG1        0.0731
     65 H           5.0482    1.9830   -2.7618 H       1  LIG1        0.0731
     66 H           7.6683    0.8624   -3.9361 H       1  LIG1        0.0732
     67 H           7.3454    1.1650   -2.2062 H       1  LIG1        0.0732
@<TRIPOS>BOND
     1     1     2   ar
     2     2     3   ar
     3     2    39    1
     4     3     4   ar
     5     4    38   ar
     6     5     1   ar
     7     6     7   ar
     8     6    33    1
     9     7     8   ar
    10     8     9   ar
    11     9    10   ar
    12    10    11   ar
    13    11     6   ar
    14    12    13   ar
    15    13    14   ar
    16    14    15   ar
    17    15    16   ar
    18    16    18   ar
    19    17    18    1
    20    17    21    1
    21    17    20    1
    22    17    19    1
    23    18    12   ar
    24    20    22    1
    25    23    26    1
    26    23    25    2
    27    23    24    2
    28    23    14    1
    29    26    32    1
    30    27    28   ar
    31    27     9    1
    32    28    29   ar
    33    29    30   ar
    34    30    31   ar
    35    31    32   ar
    36    32    27   ar
    37    34    35    1
    38    34    28    1
    39    35    36    1
    40    36    37    1
    41    37    38    1
    42    38     5   ar
    43     1    40    1
    44     3    41    1
    45     7    42    1
    46     8    43    1
    47    10    44    1
    48    11    45    1
    49    12    46    1
    50    13    47    1
    51    15    48    1
    52    16    49    1
    53    19    50    1
    54    19    51    1
    55    19    52    1
    56    20    53    1
    57    20    54    1
    58    21    55    1
    59    21    56    1
    60    21    57    1
    61    22    58    1
    62    26    59    1
    63    30    60    1
    64    33    61    1
    65    33    62    1
    66    33    63    1
    67    35    64    1
    68    35    65    1
    69    36    66    1
    70    36    67    1
@<TRIPOS>MOLECULE
*****
 67 70 0 0 0
SMALL
GASTEIGER

@<TRIPOS>ATOM
      1 C          10.1018    1.4992   -0.6741 C.ar    1  LIG1        0.0483
      2 C           9.6271    1.8620    0.5645 C.ar    1  LIG1        0.0543
      3 C           8.2615    1.9921    0.6604 C.ar    1  LIG1        0.0483
      4 N           7.4180    1.7834   -0.3736 N.ar    1  LIG1       -0.2022
      5 N           9.3056    1.2688   -1.7402 N.ar    1  LIG1       -0.2022
      6 C           5.8942    0.3021   -9.7748 C.ar    1  LIG1       -0.0504
      7 C           4.5376    0.5924   -9.6180 C.ar    1  LIG1       -0.0583
      8 C           4.1051    1.4453   -8.5958 C.ar    1  LIG1       -0.0535
      9 C           5.0116    2.0464   -7.7107 C.ar    1  LIG1       -0.0094
     10 C           6.3708    1.7167   -7.8606 C.ar    1  LIG1       -0.0535
     11 C           6.8059    0.8503   -8.8703 C.ar    1  LIG1       -0.0583
     12 C           0.1182    7.0475   -6.0232 C.ar    1  LIG1       -0.0561
     13 C           0.7900    5.9295   -6.5284 C.ar    1  LIG1       -0.0348
     14 C           1.1544    5.8822   -7.8726 C.ar    1  LIG1        0.1086
     15 C           0.7878    6.9188   -8.7282 C.ar    1  LIG1       -0.0348
     16 C           0.0839    8.0173   -8.2212 C.ar    1  LIG1       -0.0561
     17 C          -1.0367    9.3435   -6.3294 C.3     1  LIG1        0.0132
     18 C          -0.2497    8.1206   -6.8548 C.ar    1  LIG1       -0.0394
     19 C          -1.2975    9.2791   -4.8025 C.3     1  LIG1       -0.0537
     20 C          -0.2545   10.6678   -6.5721 C.3     1  LIG1        0.0533
     21 C          -2.4164    9.3914   -7.0212 C.3     1  LIG1       -0.0537
     22 O          -0.2094   11.0666   -7.9383 O.3     1  LIG1       -0.3942
     23 S           1.9468    4.4239   -8.5234 S.O2    1  LIG1        0.0735
     24 O           1.8050    4.4833   -9.9625 O.2     1  LIG1       -0.1499
     25 O           1.4423    3.2918   -7.7742 O.2     1  LIG1       -0.1499
     26 N           3.5973    4.6672   -8.1882 N.pl3   1  LIG1       -0.1988
     27 C           4.5826    2.9859   -6.6567 C.ar    1  LIG1        0.0847
     28 C           4.8034    2.7639   -5.3016 C.ar    1  LIG1        0.2276
     29 N           4.5197    3.6472   -4.3193 N.ar    1  LIG1       -0.2008
     30 C           4.0116    4.8153   -4.7101 C.ar    1  LIG1        0.1219
     31 N           3.7336    5.1624   -5.9677 N.ar    1  LIG1       -0.2186
     32 C           3.9986    4.2263   -6.8952 C.ar    1  LIG1        0.1524
     33 C           6.3535   -0.6325  -10.8535 C.3     1  LIG1       -0.0397
     34 O           5.4440    1.6008   -4.9230 O.3     1  LIG1       -0.4724
     35 C           5.0120    1.0868   -3.6574 C.3     1  LIG1        0.1252
     36 C           5.8532    1.5897   -2.4814 C.3     1  LIG1        0.1267
     37 O           7.1961    1.1193   -2.6245 O.3     1  LIG1       -0.4590
     38 C           7.9879    1.4263   -1.5397 C.ar    1  LIG1        0.3180
     39 BR         10.7641    2.1515    2.0291 Br      1  LIG1       -0.0472
     40 H          11.1637    1.3704   -0.8620 H       1  LIG1        0.0843
     41 H           7.7806    2.2695    1.5940 H       1  LIG1        0.0843
     42 H           3.7999    0.1592  -10.2902 H       1  LIG1        0.0620
     43 H           3.0375    1.6189   -8.5034 H       1  LIG1        0.0624
     44 H           7.1130    2.1307   -7.1794 H       1  LIG1        0.0624
     45 H           7.8646    0.6118   -8.9446 H       1  LIG1        0.0620
     46 H          -0.1299    7.0348   -4.9651 H       1  LIG1        0.0621
     47 H           1.0166    5.0985   -5.8642 H       1  LIG1        0.0637
     48 H           1.0071    6.8710   -9.7930 H       1  LIG1        0.0637
     49 H          -0.2325    8.7837   -8.9267 H       1  LIG1        0.0621
     50 H          -1.8872    8.3974   -4.5262 H       1  LIG1        0.0239
     51 H          -1.8603   10.1559   -4.4601 H       1  LIG1        0.0239
     52 H          -0.3590    9.2566   -4.2355 H       1  LIG1        0.0239
     53 H           0.7723   10.5986   -6.1926 H       1  LIG1        0.0566
     54 H          -0.7401   11.4922   -6.0372 H       1  LIG1        0.0566
     55 H          -2.3393    9.4959   -8.1084 H       1  LIG1        0.0239
     56 H          -3.0107   10.2363   -6.6546 H       1  LIG1        0.0239
     57 H          -2.9858    8.4748   -6.8233 H       1  LIG1        0.0239
     58 H           0.6508   10.7795   -8.2902 H       1  LIG1        0.2094
     59 H           3.7977    5.6636   -8.2567 H       1  LIG1        0.1753
     60 H           3.8021    5.5462   -3.9366 H       1  LIG1        0.1049
     61 H           5.6887   -0.5831  -11.7227 H       1  LIG1        0.0278
     62 H           6.3692   -1.6605  -10.4792 H       1  LIG1        0.0278
     63 H           7.3575   -0.3647  -11.1993 H       1  LIG1        0.0278
     64 H           5.1246   -0.0016   -3.7264 H       1  LIG1        0.0731
     65 H           3.9444    1.2814   -3.4907 H       1  LIG1        0.0731
     66 H           5.4017    1.1868   -1.5663 H       1  LIG1        0.0732
     67 H           5.8626    2.6835   -2.4364 H       1  LIG1        0.0732
@<TRIPOS>BOND
     1     1     2   ar
     2     2     3   ar
     3     2    39    1
     4     3     4   ar
     5     4    38   ar
     6     5     1   ar
     7     6     7   ar
     8     6    33    1
     9     7     8   ar
    10     8     9   ar
    11     9    10   ar
    12    10    11   ar
    13    11     6   ar
    14    12    13   ar
    15    13    14   ar
    16    14    15   ar
    17    15    16   ar
    18    16    18   ar
    19    17    18    1
    20    17    21    1
    21    17    20    1
    22    17    19    1
    23    18    12   ar
    24    20    22    1
    25    23    26    1
    26    23    25    2
    27    23    24    2
    28    23    14    1
    29    26    32    1
    30    27    28   ar
    31    27     9    1
    32    28    29   ar
    33    29    30   ar
    34    30    31   ar
    35    31    32   ar
    36    32    27   ar
    37    34    35    1
    38    34    28    1
    39    35    36    1
    40    36    37    1
    41    37    38    1
    42    38     5   ar
    43     1    40    1
    44     3    41    1
    45     7    42    1
    46     8    43    1
    47    10    44    1
    48    11    45    1
    49    12    46    1
    50    13    47    1
    51    15    48    1
    52    16    49    1
    53    19    50    1
    54    19    51    1
    55    19    52    1
    56    20    53    1
    57    20    54    1
    58    21    55    1
    59    21    56    1
    60    21    57    1
    61    22    58    1
    62    26    59    1
    63    30    60    1
    64    33    61    1
    65    33    62    1
    66    33    63    1
    67    35    64    1
    68    35    65    1
    69    36    66    1
    70    36    67    1
@<TRIPOS>MOLECULE
*****
 67 70 0 0 0
SMALL
GASTEIGER

@<TRIPOS>ATOM
      1 C          10.1764    1.5575   -0.4847 C.ar    1  LIG1        0.0483
      2 C           9.6816    1.8709    0.7593 C.ar    1  LIG1        0.0543
      3 C           8.3166    2.0207    0.8332 C.ar    1  LIG1        0.0483
      4 N           7.4909    1.8735   -0.2258 N.ar    1  LIG1       -0.2022
      5 N           9.3984    1.3886   -1.5749 N.ar    1  LIG1       -0.2022
      6 C           5.9279    0.1840   -9.6306 C.ar    1  LIG1       -0.0504
      7 C           5.8823    1.5516   -9.9007 C.ar    1  LIG1       -0.0583
      8 C           5.4531    2.4623   -8.9223 C.ar    1  LIG1       -0.0535
      9 C           5.0290    2.0478   -7.6458 C.ar    1  LIG1       -0.0094
     10 C           5.0620    0.6575   -7.4129 C.ar    1  LIG1       -0.0535
     11 C           5.5271   -0.2551   -8.3712 C.ar    1  LIG1       -0.0583
     12 C           0.2246    7.0173   -6.1325 C.ar    1  LIG1       -0.0561
     13 C           0.9993    6.4692   -7.1600 C.ar    1  LIG1       -0.0348
     14 C           0.9909    5.0889   -7.3651 C.ar    1  LIG1        0.1086
     15 C           0.1756    4.2688   -6.5889 C.ar    1  LIG1       -0.0348
     16 C          -0.6108    4.8298   -5.5765 C.ar    1  LIG1       -0.0561
     17 C          -1.4109    6.8436   -4.1652 C.3     1  LIG1        0.0132
     18 C          -0.5973    6.2120   -5.3154 C.ar    1  LIG1       -0.0394
     19 C          -2.2037    8.0699   -4.6751 C.3     1  LIG1       -0.0537
     20 C          -2.4109    5.8763   -3.4615 C.3     1  LIG1        0.0533
     21 C          -0.4155    7.3146   -3.0790 C.3     1  LIG1       -0.0537
     22 O          -3.4278    5.3810   -4.3272 O.3     1  LIG1       -0.3942
     23 S           2.0419    4.3768   -8.6119 S.O2    1  LIG1        0.0735
     24 O           1.8189    5.1390   -9.8235 O.2     1  LIG1       -0.1499
     25 O           1.8605    2.9390   -8.5843 O.2     1  LIG1       -0.1499
     26 N           3.6128    4.7399   -8.1046 N.pl3   1  LIG1       -0.1988
     27 C           4.5970    3.0152   -6.5915 C.ar    1  LIG1        0.0847
     28 C           4.8069    2.8228   -5.2219 C.ar    1  LIG1        0.2276
     29 N           4.4411    3.6814   -4.2412 N.ar    1  LIG1       -0.2008
     30 C           3.8736    4.8161   -4.6345 C.ar    1  LIG1        0.1219
     31 N           3.6471    5.1605   -5.8978 N.ar    1  LIG1       -0.2186
     32 C           3.9840    4.2460   -6.8268 C.ar    1  LIG1        0.1524
     33 C           6.4564   -0.7805  -10.6490 C.3     1  LIG1       -0.0397
     34 O           5.5599    1.7445   -4.8042 O.3     1  LIG1       -0.4724
     35 C           5.1409    1.1986   -3.5464 C.3     1  LIG1        0.1252
     36 C           5.9541    1.7361   -2.3676 C.3     1  LIG1        0.1267
     37 O           7.3087    1.2997   -2.5046 O.3     1  LIG1       -0.4590
     38 C           8.0798    1.5587   -1.3944 C.ar    1  LIG1        0.3180
     39 BR         10.7924    2.0696    2.2586 Br      1  LIG1       -0.0472
     40 H          11.2396    1.4193   -0.6578 H       1  LIG1        0.0843
     41 H           7.8211    2.2629    1.7689 H       1  LIG1        0.0843
     42 H           6.1875    1.9271  -10.8749 H       1  LIG1        0.0620
     43 H           5.4712    3.5144   -9.1926 H       1  LIG1        0.0624
     44 H           4.7328    0.2424   -6.4638 H       1  LIG1        0.0624
     45 H           5.5693   -1.3117   -8.1177 H       1  LIG1        0.0620
     46 H           0.2827    8.0919   -5.9720 H       1  LIG1        0.0621
     47 H           1.6176    7.1203   -7.7719 H       1  LIG1        0.0637
     48 H           0.1430    3.1941   -6.7567 H       1  LIG1        0.0637
     49 H          -1.2358    4.1508   -5.0006 H       1  LIG1        0.0621
     50 H          -1.5463    8.8971   -4.9645 H       1  LIG1        0.0239
     51 H          -2.8701    8.4587   -3.8961 H       1  LIG1        0.0239
     52 H          -2.8158    7.8191   -5.5486 H       1  LIG1        0.0239
     53 H          -2.9142    6.3813   -2.6280 H       1  LIG1        0.0566
     54 H          -1.8909    5.0133   -3.0302 H       1  LIG1        0.0566
     55 H           0.1758    6.4749   -2.6939 H       1  LIG1        0.0239
     56 H          -0.9409    7.7687   -2.2308 H       1  LIG1        0.0239
     57 H           0.2891    8.0618   -3.4615 H       1  LIG1        0.0239
     58 H          -3.9418    6.1361   -4.6585 H       1  LIG1        0.2094
     59 H           3.7471    5.7474   -8.1454 H       1  LIG1        0.1753
     60 H           3.5770    5.5192   -3.8646 H       1  LIG1        0.1049
     61 H           6.1537   -0.4851  -11.6591 H       1  LIG1        0.0278
     62 H           6.0690   -1.7901  -10.4756 H       1  LIG1        0.0278
     63 H           7.5495   -0.8135  -10.6011 H       1  LIG1        0.0278
     64 H           5.3062    0.1174   -3.6232 H       1  LIG1        0.0731
     65 H           4.0644    1.3386   -3.3822 H       1  LIG1        0.0731
     66 H           5.5047    1.3278   -1.4541 H       1  LIG1        0.0732
     67 H           5.9347    2.8303   -2.3345 H       1  LIG1        0.0732
@<TRIPOS>BOND
     1     1     2   ar
     2     2     3   ar
     3     2    39    1
     4     3     4   ar
     5     4    38   ar
     6     5     1   ar
     7     6     7   ar
     8     6    33    1
     9     7     8   ar
    10     8     9   ar
    11     9    10   ar
    12    10    11   ar
    13    11     6   ar
    14    12    13   ar
    15    13    14   ar
    16    14    15   ar
    17    15    16   ar
    18    16    18   ar
    19    17    18    1
    20    17    21    1
    21    17    20    1
    22    17    19    1
    23    18    12   ar
    24    20    22    1
    25    23    26    1
    26    23    25    2
    27    23    24    2
    28    23    14    1
    29    26    32    1
    30    27    28   ar
    31    27     9    1
    32    28    29   ar
    33    29    30   ar
    34    30    31   ar
    35    31    32   ar
    36    32    27   ar
    37    34    35    1
    38    34    28    1
    39    35    36    1
    40    36    37    1
    41    37    38    1
    42    38     5   ar
    43     1    40    1
    44     3    41    1
    45     7    42    1
    46     8    43    1
    47    10    44    1
    48    11    45    1
    49    12    46    1
    50    13    47    1
    51    15    48    1
    52    16    49    1
    53    19    50    1
    54    19    51    1
    55    19    52    1
    56    20    53    1
    57    20    54    1
    58    21    55    1
    59    21    56    1
    60    21    57    1
    61    22    58    1
    62    26    59    1
    63    30    60    1
    64    33    61    1
    65    33    62    1
    66    33    63    1
    67    35    64    1
    68    35    65    1
    69    36    66    1
    70    36    67    1
@<TRIPOS>MOLECULE
*****
 67 70 0 0 0
SMALL
GASTEIGER

@<TRIPOS>ATOM
      1 C          11.1296    3.0591   -4.2770 C.ar    1  LIG1        0.0483
      2 C          12.0248    2.4469   -3.4326 C.ar    1  LIG1        0.0543
      3 C          11.5059    2.0078   -2.2372 C.ar    1  LIG1        0.0483
      4 N          10.2072    2.1437   -1.8927 N.ar    1  LIG1       -0.2022
      5 N           9.8238    3.2295   -3.9801 N.ar    1  LIG1       -0.2022
      6 C           5.8756   -0.0594   -9.2958 C.ar    1  LIG1       -0.0504
      7 C           6.1618    1.2835   -9.5495 C.ar    1  LIG1       -0.0583
      8 C           5.7113    2.2845   -8.6798 C.ar    1  LIG1       -0.0535
      9 C           4.9590    1.9785   -7.5322 C.ar    1  LIG1       -0.0094
     10 C           4.6728    0.6215   -7.2989 C.ar    1  LIG1       -0.0535
     11 C           5.1343   -0.3836   -8.1577 C.ar    1  LIG1       -0.0583
     12 C           1.0709    8.0300   -9.9243 C.ar    1  LIG1       -0.0561
     13 C           1.5489    6.7176   -9.9075 C.ar    1  LIG1       -0.0348
     14 C           1.3876    5.9375   -8.7616 C.ar    1  LIG1        0.1086
     15 C           0.7302    6.4528   -7.6478 C.ar    1  LIG1       -0.0348
     16 C           0.2528    7.7700   -7.6745 C.ar    1  LIG1       -0.0561
     17 C          -0.1086   10.0420   -8.8730 C.3     1  LIG1        0.0132
     18 C           0.4134    8.5894   -8.8091 C.ar    1  LIG1       -0.0394
     19 C           1.0830   10.9978   -9.1140 C.3     1  LIG1       -0.0537
     20 C          -1.1173   10.2051  -10.0455 C.3     1  LIG1        0.0533
     21 C          -0.8069   10.5084   -7.5744 C.3     1  LIG1       -0.0537
     22 O          -2.2978    9.4309   -9.8502 O.3     1  LIG1       -0.3942
     23 S           2.0257    4.2688   -8.7509 S.O2    1  LIG1        0.0735
     24 O           2.0310    3.8335  -10.1326 O.2     1  LIG1       -0.1499
     25 O           1.3287    3.5227   -7.7268 O.2     1  LIG1       -0.1499
     26 N           3.6410    4.5558   -8.3063 N.pl3   1  LIG1       -0.1988
     27 C           4.5239    3.0297   -6.5848 C.ar    1  LIG1        0.0847
     28 C           4.7522    2.9672   -5.2137 C.ar    1  LIG1        0.2276
     29 N           4.3817    3.9126   -4.3239 N.ar    1  LIG1       -0.2008
     30 C           3.7902    4.9959   -4.8314 C.ar    1  LIG1        0.1219
     31 N           3.5674    5.2286   -6.1265 N.ar    1  LIG1       -0.2186
     32 C           3.9276    4.2305   -6.9524 C.ar    1  LIG1        0.1524
     33 C           6.4096   -1.1393  -10.1890 C.3     1  LIG1       -0.0397
     34 O           5.4526    1.8793   -4.7292 O.3     1  LIG1       -0.4724
     35 C           6.0802    2.0595   -3.4551 C.3     1  LIG1        0.1252
     36 C           7.1917    3.1132   -3.4857 C.3     1  LIG1        0.1267
     37 O           8.1008    2.8642   -2.4140 O.3     1  LIG1       -0.4590
     38 C           9.4162    2.7424   -2.7956 C.ar    1  LIG1        0.3180
     39 BR         13.8326    2.2257   -3.8837 Br      1  LIG1       -0.0472
     40 H          11.4310    3.4430   -5.2472 H       1  LIG1        0.0843
     41 H          12.1258    1.5165   -1.4930 H       1  LIG1        0.0843
     42 H           6.7433    1.5647  -10.4248 H       1  LIG1        0.0620
     43 H           5.9718    3.3148   -8.9117 H       1  LIG1        0.0624
     44 H           4.0933    0.3247   -6.4260 H       1  LIG1        0.0624
     45 H           4.9113   -1.4227   -7.9252 H       1  LIG1        0.0620
     46 H           1.2220    8.6134  -10.8317 H       1  LIG1        0.0621
     47 H           2.0438    6.3155  -10.7899 H       1  LIG1        0.0637
     48 H           0.5909    5.8467   -6.7548 H       1  LIG1        0.0637
     49 H          -0.2502    8.1355   -6.7823 H       1  LIG1        0.0621
     50 H           1.8393   10.8938   -8.3270 H       1  LIG1        0.0239
     51 H           0.7543   12.0440   -9.1230 H       1  LIG1        0.0239
     52 H           1.5777   10.8103  -10.0733 H       1  LIG1        0.0239
     53 H          -0.6854    9.9252  -11.0123 H       1  LIG1        0.0566
     54 H          -1.4325   11.2515  -10.1327 H       1  LIG1        0.0566
     55 H          -1.6730    9.8848   -7.3264 H       1  LIG1        0.0239
     56 H          -1.1695   11.5388   -7.6730 H       1  LIG1        0.0239
     57 H          -0.1205   10.4891   -6.7199 H       1  LIG1        0.0239
     58 H          -2.0238    8.4985   -9.7833 H       1  LIG1        0.2094
     59 H           3.8396    5.5484   -8.4231 H       1  LIG1        0.1753
     60 H           3.4754    5.7592   -4.1278 H       1  LIG1        0.1049
     61 H           6.5863   -0.7627  -11.2019 H       1  LIG1        0.0278
     62 H           5.6965   -1.9665  -10.2688 H       1  LIG1        0.0278
     63 H           7.3538   -1.5220   -9.7885 H       1  LIG1        0.0278
     64 H           6.5220    1.0889   -3.1978 H       1  LIG1        0.0731
     65 H           5.3421    2.2605   -2.6688 H       1  LIG1        0.0731
     66 H           6.7709    4.1113   -3.3210 H       1  LIG1        0.0732
     67 H           7.6412    3.1239   -4.4846 H       1  LIG1        0.0732
@<TRIPOS>BOND
     1     1     2   ar
     2     2     3   ar
     3     2    39    1
     4     3     4   ar
     5     4    38   ar
     6     5     1   ar
     7     6     7   ar
     8     6    33    1
     9     7     8   ar
    10     8     9   ar
    11     9    10   ar
    12    10    11   ar
    13    11     6   ar
    14    12    13   ar
    15    13    14   ar
    16    14    15   ar
    17    15    16   ar
    18    16    18   ar
    19    17    18    1
    20    17    21    1
    21    17    20    1
    22    17    19    1
    23    18    12   ar
    24    20    22    1
    25    23    26    1
    26    23    25    2
    27    23    24    2
    28    23    14    1
    29    26    32    1
    30    27    28   ar
    31    27     9    1
    32    28    29   ar
    33    29    30   ar
    34    30    31   ar
    35    31    32   ar
    36    32    27   ar
    37    34    35    1
    38    34    28    1
    39    35    36    1
    40    36    37    1
    41    37    38    1
    42    38     5   ar
    43     1    40    1
    44     3    41    1
    45     7    42    1
    46     8    43    1
    47    10    44    1
    48    11    45    1
    49    12    46    1
    50    13    47    1
    51    15    48    1
    52    16    49    1
    53    19    50    1
    54    19    51    1
    55    19    52    1
    56    20    53    1
    57    20    54    1
    58    21    55    1
    59    21    56    1
    60    21    57    1
    61    22    58    1
    62    26    59    1
    63    30    60    1
    64    33    61    1
    65    33    62    1
    66    33    63    1
    67    35    64    1
    68    35    65    1
    69    36    66    1
    70    36    67    1
@<TRIPOS>MOLECULE
*****
 67 70 0 0 0
SMALL
GASTEIGER

@<TRIPOS>ATOM
      1 C           8.7676    5.1363   -0.1299 C.ar    1  LIG1        0.0483
      2 C           8.5727    6.3452   -0.7553 C.ar    1  LIG1        0.0543
      3 C           8.3277    6.2799   -2.1069 C.ar    1  LIG1        0.0483
      4 N           8.2760    5.1222   -2.8004 N.ar    1  LIG1       -0.2022
      5 N           8.7301    3.9500   -0.7736 N.ar    1  LIG1       -0.2022
      6 C           5.8678    0.0788   -9.6148 C.ar    1  LIG1       -0.0504
      7 C           5.8572    1.4394   -9.9217 C.ar    1  LIG1       -0.0583
      8 C           5.4559    2.3851   -8.9678 C.ar    1  LIG1       -0.0535
      9 C           5.0328    2.0117   -7.6794 C.ar    1  LIG1       -0.0094
     10 C           5.0198    0.6290   -7.4074 C.ar    1  LIG1       -0.0535
     11 C           5.4523   -0.3194   -8.3451 C.ar    1  LIG1       -0.0583
     12 C           0.0506    3.1776   -5.2354 C.ar    1  LIG1       -0.0561
     13 C           0.6336    3.9569   -6.2394 C.ar    1  LIG1       -0.0348
     14 C           1.2652    3.3374   -7.3177 C.ar    1  LIG1        0.1086
     15 C           1.2747    1.9496   -7.4257 C.ar    1  LIG1       -0.0348
     16 C           0.6844    1.1793   -6.4218 C.ar    1  LIG1       -0.0561
     17 C          -0.5611    0.8835   -4.2072 C.3     1  LIG1        0.0132
     18 C           0.0666    1.7726   -5.3003 C.ar    1  LIG1       -0.0394
     19 C          -1.1545    1.6836   -3.0232 C.3     1  LIG1       -0.0537
     20 C          -1.6765   -0.0233   -4.8034 C.3     1  LIG1        0.0533
     21 C           0.5419   -0.0274   -3.6162 C.3     1  LIG1       -0.0537
     22 O          -2.7617    0.7146   -5.3576 O.3     1  LIG1       -0.3942
     23 S           1.9785    4.3196   -8.6082 S.O2    1  LIG1        0.0735
     24 O           1.3086    5.6048   -8.6027 O.2     1  LIG1       -0.1499
     25 O           2.0092    3.5248   -9.8191 O.2     1  LIG1       -0.1499
     26 N           3.5820    4.6534   -8.1806 N.pl3   1  LIG1       -0.1988
     27 C           4.6661    3.0202   -6.6461 C.ar    1  LIG1        0.0847
     28 C           5.0139    2.9089   -5.2977 C.ar    1  LIG1        0.2276
     29 N           4.7185    3.8157   -4.3409 N.ar    1  LIG1       -0.2008
     30 C           4.0769    4.9104   -4.7392 C.ar    1  LIG1        0.1219
     31 N           3.7189    5.1790   -5.9926 N.ar    1  LIG1       -0.2186
     32 C           4.0196    4.2295   -6.8973 C.ar    1  LIG1        0.1524
     33 C           6.3827   -0.9203  -10.6075 C.3     1  LIG1       -0.0397
     34 O           5.7301    1.7984   -4.8922 O.3     1  LIG1       -0.4724
     35 C           6.4747    1.9605   -3.6813 C.3     1  LIG1        0.1252
     36 C           7.7829    2.7077   -3.9356 C.3     1  LIG1        0.1267
     37 O           8.5390    2.7848   -2.7302 O.3     1  LIG1       -0.4590
     38 C           8.4765    3.9993   -2.0903 C.ar    1  LIG1        0.3180
     39 BR          8.6430    7.9755    0.1709 Br      1  LIG1       -0.0472
     40 H           8.9723    5.0712    0.9347 H       1  LIG1        0.0843
     41 H           8.1666    7.1754   -2.7000 H       1  LIG1        0.0843
     42 H           6.1729    1.7824  -10.9049 H       1  LIG1        0.0620
     43 H           5.4998    3.4315   -9.2618 H       1  LIG1        0.0624
     44 H           4.6897    0.2562   -6.4393 H       1  LIG1        0.0624
     45 H           5.4674   -1.3711   -8.0669 H       1  LIG1        0.0620
     46 H          -0.4222    3.7032   -4.4102 H       1  LIG1        0.0621
     47 H           0.5940    5.0421   -6.1674 H       1  LIG1        0.0637
     48 H           1.7316    1.4599   -8.2835 H       1  LIG1        0.0637
     49 H           0.7058    0.0974   -6.5366 H       1  LIG1        0.0621
     50 H          -0.3825    2.2687   -2.5091 H       1  LIG1        0.0239
     51 H          -1.5984    1.0113   -2.2794 H       1  LIG1        0.0239
     52 H          -1.9403    2.3772   -3.3410 H       1  LIG1        0.0239
     53 H          -2.0882   -0.6867   -4.0334 H       1  LIG1        0.0566
     54 H          -1.2879   -0.6696   -5.5974 H       1  LIG1        0.0566
     55 H           0.9543   -0.7161   -4.3618 H       1  LIG1        0.0239
     56 H           0.1502   -0.6407   -2.7964 H       1  LIG1        0.0239
     57 H           1.3751    0.5660   -3.2208 H       1  LIG1        0.0239
     58 H          -3.1958    1.2061   -4.6419 H       1  LIG1        0.2094
     59 H           3.6218    5.6749   -8.1630 H       1  LIG1        0.1753
     60 H           3.8306    5.6453   -3.9810 H       1  LIG1        0.1049
     61 H           6.0786   -0.6505  -11.6242 H       1  LIG1        0.0278
     62 H           5.9888   -1.9213  -10.4032 H       1  LIG1        0.0278
     63 H           7.4759   -0.9603  -10.5631 H       1  LIG1        0.0278
     64 H           6.7156    0.9518   -3.3233 H       1  LIG1        0.0731
     65 H           5.8858    2.4064   -2.8701 H       1  LIG1        0.0731
     66 H           7.6063    3.6689   -4.4307 H       1  LIG1        0.0732
     67 H           8.3795    2.1313   -4.6533 H       1  LIG1        0.0732
@<TRIPOS>BOND
     1     1     2   ar
     2     2     3   ar
     3     2    39    1
     4     3     4   ar
     5     4    38   ar
     6     5     1   ar
     7     6     7   ar
     8     6    33    1
     9     7     8   ar
    10     8     9   ar
    11     9    10   ar
    12    10    11   ar
    13    11     6   ar
    14    12    13   ar
    15    13    14   ar
    16    14    15   ar
    17    15    16   ar
    18    16    18   ar
    19    17    18    1
    20    17    21    1
    21    17    20    1
    22    17    19    1
    23    18    12   ar
    24    20    22    1
    25    23    26    1
    26    23    25    2
    27    23    24    2
    28    23    14    1
    29    26    32    1
    30    27    28   ar
    31    27     9    1
    32    28    29   ar
    33    29    30   ar
    34    30    31   ar
    35    31    32   ar
    36    32    27   ar
    37    34    35    1
    38    34    28    1
    39    35    36    1
    40    36    37    1
    41    37    38    1
    42    38     5   ar
    43     1    40    1
    44     3    41    1
    45     7    42    1
    46     8    43    1
    47    10    44    1
    48    11    45    1
    49    12    46    1
    50    13    47    1
    51    15    48    1
    52    16    49    1
    53    19    50    1
    54    19    51    1
    55    19    52    1
    56    20    53    1
    57    20    54    1
    58    21    55    1
    59    21    56    1
    60    21    57    1
    61    22    58    1
    62    26    59    1
    63    30    60    1
    64    33    61    1
    65    33    62    1
    66    33    63    1
    67    35    64    1
    68    35    65    1
    69    36    66    1
    70    36    67    1
@<TRIPOS>MOLECULE
*****
 67 70 0 0 0
SMALL
GASTEIGER

@<TRIPOS>ATOM
      1 C          10.0066    3.1889   -1.0144 C.ar    1  LIG1        0.0483
      2 C          10.1682    4.5532   -0.9457 C.ar    1  LIG1        0.0543
      3 C           9.3719    5.2870   -1.7926 C.ar    1  LIG1        0.0483
      4 N           8.4726    4.7342   -2.6316 N.ar    1  LIG1       -0.2022
      5 N           9.1268    2.5804   -1.8403 N.ar    1  LIG1       -0.2022
      6 C           5.8755    0.0718   -9.5992 C.ar    1  LIG1       -0.0504
      7 C           4.6060    0.6534   -9.6470 C.ar    1  LIG1       -0.0583
      8 C           4.2062    1.5700   -8.6673 C.ar    1  LIG1       -0.0535
      9 C           5.0631    1.9401   -7.6169 C.ar    1  LIG1       -0.0094
     10 C           6.3363    1.3438   -7.5861 C.ar    1  LIG1       -0.0535
     11 C           6.7336    0.4137   -8.5521 C.ar    1  LIG1       -0.0583
     12 C           3.6223    5.4704  -12.6489 C.ar    1  LIG1       -0.0561
     13 C           3.8518    5.7727  -11.3016 C.ar    1  LIG1       -0.0348
     14 C           4.7930    5.0392  -10.5794 C.ar    1  LIG1        0.1086
     15 C           5.5276    4.0346  -11.2011 C.ar    1  LIG1       -0.0348
     16 C           5.2947    3.7439  -12.5497 C.ar    1  LIG1       -0.0561
     17 C           4.0895    4.1081  -14.7943 C.3     1  LIG1        0.0132
     18 C           4.3215    4.4414  -13.3015 C.ar    1  LIG1       -0.0394
     19 C           4.1982    2.5857  -15.0621 C.3     1  LIG1       -0.0537
     20 C           2.6889    4.5732  -15.2970 C.3     1  LIG1        0.0533
     21 C           5.1844    4.8241  -15.6130 C.3     1  LIG1       -0.0537
     22 O           2.4149    4.1814  -16.6411 O.3     1  LIG1       -0.3942
     23 S           5.0831    5.4323   -8.8682 S.O2    1  LIG1        0.0735
     24 O           4.8316    6.8499   -8.7129 O.2     1  LIG1       -0.1499
     25 O           6.3404    4.8346   -8.4808 O.2     1  LIG1       -0.1499
     26 N           3.7766    4.6217   -8.1563 N.pl3   1  LIG1       -0.1988
     27 C           4.6499    2.9102   -6.5806 C.ar    1  LIG1        0.0847
     28 C           4.7796    2.6795   -5.2134 C.ar    1  LIG1        0.2276
     29 N           4.3847    3.5401   -4.2509 N.ar    1  LIG1       -0.2008
     30 C           3.8529    4.6908   -4.6665 C.ar    1  LIG1        0.1219
     31 N           3.6373    5.0351   -5.9362 N.ar    1  LIG1       -0.2186
     32 C           4.0530    4.1379   -6.8462 C.ar    1  LIG1        0.1524
     33 C           6.2842   -0.9415  -10.6262 C.3     1  LIG1       -0.0397
     34 O           5.2634    1.4446   -4.8179 O.3     1  LIG1       -0.4724
     35 C           5.6013    1.3052   -3.4348 C.3     1  LIG1        0.1252
     36 C           7.1007    1.5072   -3.2109 C.3     1  LIG1        0.1267
     37 O           7.4269    2.8759   -3.4461 O.3     1  LIG1       -0.4590
     38 C           8.3829    3.3957   -2.6090 C.ar    1  LIG1        0.3180
     39 BR         11.3858    5.3596    0.2324 Br      1  LIG1       -0.0472
     40 H          10.5868    2.5162   -0.3892 H       1  LIG1        0.0843
     41 H           9.4205    6.3715   -1.8276 H       1  LIG1        0.0843
     42 H           3.9152    0.3973  -10.4467 H       1  LIG1        0.0620
     43 H           3.2052    1.9925   -8.7372 H       1  LIG1        0.0624
     44 H           7.0423    1.6031   -6.7975 H       1  LIG1        0.0624
     45 H           7.7206   -0.0358   -8.4769 H       1  LIG1        0.0620
     46 H           2.8848    6.0768  -13.1689 H       1  LIG1        0.0621
     47 H           3.2967    6.5804  -10.8309 H       1  LIG1        0.0637
     48 H           6.2794    3.4713  -10.6509 H       1  LIG1        0.0637
     49 H           5.9028    2.9641  -13.0015 H       1  LIG1        0.0621
     50 H           5.2043    2.1984  -14.8702 H       1  LIG1        0.0239
     51 H           3.9790    2.3403  -16.1073 H       1  LIG1        0.0239
     52 H           3.4968    2.0255  -14.4331 H       1  LIG1        0.0239
     53 H           2.5822    5.6625  -15.2588 H       1  LIG1        0.0566
     54 H           1.8989    4.1414  -14.6716 H       1  LIG1        0.0566
     55 H           5.1107    5.9127  -15.5049 H       1  LIG1        0.0239
     56 H           5.1114    4.5888  -16.6804 H       1  LIG1        0.0239
     57 H           6.1890    4.5313  -15.2856 H       1  LIG1        0.0239
     58 H           2.9665    4.7263  -17.2275 H       1  LIG1        0.2094
     59 H           3.0548    5.3336   -8.0299 H       1  LIG1        0.1753
     60 H           3.5593    5.4029   -3.9030 H       1  LIG1        0.1049
     61 H           5.9706   -0.6236  -11.6259 H       1  LIG1        0.0278
     62 H           5.8285   -1.9102  -10.3985 H       1  LIG1        0.0278
     63 H           7.3718   -1.0663  -10.6496 H       1  LIG1        0.0278
     64 H           5.3495    0.2734   -3.1651 H       1  LIG1        0.0731
     65 H           5.0128    1.9456   -2.7684 H       1  LIG1        0.0731
     66 H           7.6756    0.8967   -3.9160 H       1  LIG1        0.0732
     67 H           7.3185    1.1807   -2.1881 H       1  LIG1        0.0732
@<TRIPOS>BOND
     1     1     2   ar
     2     2     3   ar
     3     2    39    1
     4     3     4   ar
     5     4    38   ar
     6     5     1   ar
     7     6     7   ar
     8     6    33    1
     9     7     8   ar
    10     8     9   ar
    11     9    10   ar
    12    10    11   ar
    13    11     6   ar
    14    12    13   ar
    15    13    14   ar
    16    14    15   ar
    17    15    16   ar
    18    16    18   ar
    19    17    18    1
    20    17    21    1
    21    17    20    1
    22    17    19    1
    23    18    12   ar
    24    20    22    1
    25    23    26    1
    26    23    25    2
    27    23    24    2
    28    23    14    1
    29    26    32    1
    30    27    28   ar
    31    27     9    1
    32    28    29   ar
    33    29    30   ar
    34    30    31   ar
    35    31    32   ar
    36    32    27   ar
    37    34    35    1
    38    34    28    1
    39    35    36    1
    40    36    37    1
    41    37    38    1
    42    38     5   ar
    43     1    40    1
    44     3    41    1
    45     7    42    1
    46     8    43    1
    47    10    44    1
    48    11    45    1
    49    12    46    1
    50    13    47    1
    51    15    48    1
    52    16    49    1
    53    19    50    1
    54    19    51    1
    55    19    52    1
    56    20    53    1
    57    20    54    1
    58    21    55    1
    59    21    56    1
    60    21    57    1
    61    22    58    1
    62    26    59    1
    63    30    60    1
    64    33    61    1
    65    33    62    1
    66    33    63    1
    67    35    64    1
    68    35    65    1
    69    36    66    1
    70    36    67    1
@<TRIPOS>MOLECULE
*****
 67 70 0 0 0
SMALL
GASTEIGER

@<TRIPOS>ATOM
      1 C          10.6062    1.1952   -1.2815 C.ar    1  LIG1        0.0483
      2 C          11.2729    2.3793   -1.4981 C.ar    1  LIG1        0.0543
      3 C          10.8184    3.1314   -2.5564 C.ar    1  LIG1        0.0483
      4 N           9.7897    2.7585   -3.3479 N.ar    1  LIG1       -0.2022
      5 N           9.5700    0.7721   -2.0380 N.ar    1  LIG1       -0.2022
      6 C           5.9206    0.0803   -9.6043 C.ar    1  LIG1       -0.0504
      7 C           4.6566    0.6684   -9.6737 C.ar    1  LIG1       -0.0583
      8 C           4.2421    1.5799   -8.6948 C.ar    1  LIG1       -0.0535
      9 C           5.0781    1.9493   -7.6239 C.ar    1  LIG1       -0.0094
     10 C           6.3462    1.3449   -7.5735 C.ar    1  LIG1       -0.0535
     11 C           6.7559    0.4129   -8.5363 C.ar    1  LIG1       -0.0583
     12 C           3.5778    5.3827  -12.6618 C.ar    1  LIG1       -0.0561
     13 C           3.7691    5.7063  -11.3159 C.ar    1  LIG1       -0.0348
     14 C           4.7549    5.0475  -10.5834 C.ar    1  LIG1        0.1086
     15 C           5.5666    4.0947  -11.1922 C.ar    1  LIG1       -0.0348
     16 C           5.3764    3.7871  -12.5443 C.ar    1  LIG1       -0.0561
     17 C           4.1267    4.0642  -14.7942 C.3     1  LIG1        0.0132
     18 C           4.3822    4.4242  -13.3126 C.ar    1  LIG1       -0.0394
     19 C           2.8715    3.1673  -14.8581 C.3     1  LIG1       -0.0537
     20 C           3.8919    5.3477  -15.6468 C.3     1  LIG1        0.0533
     21 C           5.2933    3.2717  -15.4336 C.3     1  LIG1       -0.0537
     22 O           3.6815    5.0635  -17.0287 O.3     1  LIG1       -0.3942
     23 S           4.9725    5.4420   -8.8651 S.O2    1  LIG1        0.0735
     24 O           4.6522    6.8479   -8.7080 O.2     1  LIG1       -0.1499
     25 O           6.2420    4.9018   -8.4348 O.2     1  LIG1       -0.1499
     26 N           3.6800    4.5679   -8.1972 N.pl3   1  LIG1       -0.1988
     27 C           4.6301    2.9208   -6.5958 C.ar    1  LIG1        0.0847
     28 C           4.8053    2.7532   -5.2248 C.ar    1  LIG1        0.2276
     29 N           4.3204    3.5879   -4.2755 N.ar    1  LIG1       -0.2008
     30 C           3.6628    4.6620   -4.7116 C.ar    1  LIG1        0.1219
     31 N           3.4380    4.9674   -5.9880 N.ar    1  LIG1       -0.2186
     32 C           3.9413    4.0965   -6.8801 C.ar    1  LIG1        0.1524
     33 C           6.3431   -0.9298  -10.6284 C.3     1  LIG1       -0.0397
     34 O           5.4766    1.6281   -4.7833 O.3     1  LIG1       -0.4724
     35 C           5.9172    1.7126   -3.4217 C.3     1  LIG1        0.1252
     36 C           7.0522    0.7119   -3.2093 C.3     1  LIG1        0.1267
     37 O           8.2178    1.1790   -3.8993 O.3     1  LIG1       -0.4590
     38 C           9.2049    1.5919   -3.0390 C.ar    1  LIG1        0.3180
     39 BR         12.7105    2.9276   -0.4233 Br      1  LIG1       -0.0472
     40 H          10.8879    0.5230   -0.4763 H       1  LIG1        0.0843
     41 H          11.2755    4.0813   -2.8190 H       1  LIG1        0.0843
     42 H           3.9795    0.4206  -10.4885 H       1  LIG1        0.0620
     43 H           3.2418    1.9988   -8.7851 H       1  LIG1        0.0624
     44 H           7.0444    1.5919   -6.7743 H       1  LIG1        0.0624
     45 H           7.7380   -0.0448   -8.4398 H       1  LIG1        0.0620
     46 H           2.7720    5.8896  -13.1879 H       1  LIG1        0.0621
     47 H           3.1387    6.4602  -10.8498 H       1  LIG1        0.0637
     48 H           6.3367    3.5746  -10.6250 H       1  LIG1        0.0637
     49 H           6.0234    3.0244  -12.9695 H       1  LIG1        0.0621
     50 H           3.0000    2.2631  -14.2506 H       1  LIG1        0.0239
     51 H           2.6575    2.8477  -15.8841 H       1  LIG1        0.0239
     52 H           1.9830    3.6882  -14.4831 H       1  LIG1        0.0239
     53 H           4.7385    6.0395  -15.5626 H       1  LIG1        0.0566
     54 H           2.9996    5.8884  -15.3177 H       1  LIG1        0.0566
     55 H           6.2285    3.8421  -15.3919 H       1  LIG1        0.0239
     56 H           5.0964    3.0337  -16.4849 H       1  LIG1        0.0239
     57 H           5.4572    2.3098  -14.9349 H       1  LIG1        0.0239
     58 H           4.5551    4.9625  -17.4436 H       1  LIG1        0.2094
     59 H           2.9204    5.2433   -8.0946 H       1  LIG1        0.1753
     60 H           3.2790    5.3458   -3.9625 H       1  LIG1        0.1049
     61 H           6.0444   -0.6084  -11.6319 H       1  LIG1        0.0278
     62 H           5.8827   -1.8989  -10.4119 H       1  LIG1        0.0278
     63 H           7.4309   -1.0555  -10.6369 H       1  LIG1        0.0278
     64 H           5.0753    1.4575   -2.7679 H       1  LIG1        0.0731
     65 H           6.2913    2.7163   -3.1834 H       1  LIG1        0.0731
     66 H           6.7902   -0.2574   -3.6468 H       1  LIG1        0.0732
     67 H           7.2052    0.5684   -2.1333 H       1  LIG1        0.0732
@<TRIPOS>BOND
     1     1     2   ar
     2     2     3   ar
     3     2    39    1
     4     3     4   ar
     5     4    38   ar
     6     5     1   ar
     7     6     7   ar
     8     6    33    1
     9     7     8   ar
    10     8     9   ar
    11     9    10   ar
    12    10    11   ar
    13    11     6   ar
    14    12    13   ar
    15    13    14   ar
    16    14    15   ar
    17    15    16   ar
    18    16    18   ar
    19    17    18    1
    20    17    21    1
    21    17    20    1
    22    17    19    1
    23    18    12   ar
    24    20    22    1
    25    23    26    1
    26    23    25    2
    27    23    24    2
    28    23    14    1
    29    26    32    1
    30    27    28   ar
    31    27     9    1
    32    28    29   ar
    33    29    30   ar
    34    30    31   ar
    35    31    32   ar
    36    32    27   ar
    37    34    35    1
    38    34    28    1
    39    35    36    1
    40    36    37    1
    41    37    38    1
    42    38     5   ar
    43     1    40    1
    44     3    41    1
    45     7    42    1
    46     8    43    1
    47    10    44    1
    48    11    45    1
    49    12    46    1
    50    13    47    1
    51    15    48    1
    52    16    49    1
    53    19    50    1
    54    19    51    1
    55    19    52    1
    56    20    53    1
    57    20    54    1
    58    21    55    1
    59    21    56    1
    60    21    57    1
    61    22    58    1
    62    26    59    1
    63    30    60    1
    64    33    61    1
    65    33    62    1
    66    33    63    1
    67    35    64    1
    68    35    65    1
    69    36    66    1
    70    36    67    1
@<TRIPOS>MOLECULE
*****
 67 70 0 0 0
SMALL
GASTEIGER

@<TRIPOS>ATOM
      1 C          10.6548    2.2984   -5.4232 C.ar    1  LIG1        0.0483
      2 C          11.0123    1.5326   -6.5095 C.ar    1  LIG1        0.0543
      3 C          10.2553    0.4035   -6.7144 C.ar    1  LIG1        0.0483
      4 N           9.2188    0.0511   -5.9265 N.ar    1  LIG1       -0.2022
      5 N           9.6259    1.9969   -4.6003 N.ar    1  LIG1       -0.2022
      6 C           5.7140    0.0326   -9.6878 C.ar    1  LIG1       -0.0504
      7 C           4.4994    0.7163   -9.7791 C.ar    1  LIG1       -0.0583
      8 C           4.1042    1.6099   -8.7726 C.ar    1  LIG1       -0.0535
      9 C           4.9139    1.8623   -7.6520 C.ar    1  LIG1       -0.0094
     10 C           6.1246    1.1534   -7.5793 C.ar    1  LIG1       -0.0535
     11 C           6.5126    0.2403   -8.5649 C.ar    1  LIG1       -0.0583
     12 C           3.6134    5.3633  -12.6211 C.ar    1  LIG1       -0.0561
     13 C           3.8284    5.6779  -11.2761 C.ar    1  LIG1       -0.0348
     14 C           4.8222    5.0096  -10.5626 C.ar    1  LIG1        0.1086
     15 C           5.6152    4.0529  -11.1892 C.ar    1  LIG1       -0.0348
     16 C           5.4018    3.7546  -12.5400 C.ar    1  LIG1       -0.0561
     17 C           4.1269    4.0588  -14.7722 C.3     1  LIG1        0.0132
     18 C           4.4020    4.4044  -13.2904 C.ar    1  LIG1       -0.0394
     19 C           2.8650    3.1709  -14.8305 C.3     1  LIG1       -0.0537
     20 C           3.8917    5.3513  -15.6110 C.3     1  LIG1        0.0533
     21 C           5.2811    3.2640  -15.4316 C.3     1  LIG1       -0.0537
     22 O           3.6661    5.0807  -16.9932 O.3     1  LIG1       -0.3942
     23 S           5.0756    5.3994   -8.8469 S.O2    1  LIG1        0.0735
     24 O           4.8368    6.8214   -8.6978 O.2     1  LIG1       -0.1499
     25 O           6.3133    4.7882   -8.4207 O.2     1  LIG1       -0.1499
     26 N           3.7424    4.6055   -8.1622 N.pl3   1  LIG1       -0.1988
     27 C           4.5373    2.8403   -6.6019 C.ar    1  LIG1        0.0847
     28 C           4.6906    2.6183   -5.2337 C.ar    1  LIG1        0.2276
     29 N           4.3832    3.5131   -4.2683 N.ar    1  LIG1       -0.2008
     30 C           3.8774    4.6767   -4.6775 C.ar    1  LIG1        0.1219
     31 N           3.6439    5.0170   -5.9434 N.ar    1  LIG1       -0.2186
     32 C           3.9951    4.0966   -6.8577 C.ar    1  LIG1        0.1524
     33 C           6.1245   -0.9500  -10.7425 C.3     1  LIG1       -0.0397
     34 O           5.0967    1.3641   -4.8147 O.3     1  LIG1       -0.4724
     35 C           5.6835    1.3102   -3.5036 C.3     1  LIG1        0.1252
     36 C           7.1742    1.6470   -3.5725 C.3     1  LIG1        0.1267
     37 O           7.8440    0.5290   -4.1658 O.3     1  LIG1       -0.4590
     38 C           8.9414    0.8832   -4.9102 C.ar    1  LIG1        0.3180
     39 BR         12.4350    1.9979   -7.6408 Br      1  LIG1       -0.0472
     40 H          11.1902    3.2085   -5.1695 H       1  LIG1        0.0843
     41 H          10.4509   -0.2736   -7.5406 H       1  LIG1        0.0843
     42 H           3.8471    0.5623  -10.6362 H       1  LIG1        0.0620
     43 H           3.1452    2.1111   -8.8860 H       1  LIG1        0.0624
     44 H           6.7973    1.3042   -6.7404 H       1  LIG1        0.0624
     45 H           7.4476   -0.3011   -8.4389 H       1  LIG1        0.0620
     46 H           2.8032    5.8790  -13.1324 H       1  LIG1        0.0621
     47 H           3.2112    6.4339  -10.7962 H       1  LIG1        0.0637
     48 H           6.3890    3.5221  -10.6375 H       1  LIG1        0.0637
     49 H           6.0357    2.9894  -12.9795 H       1  LIG1        0.0621
     50 H           2.9933    2.2612  -14.2315 H       1  LIG1        0.0239
     51 H           2.6388    2.8609  -15.8569 H       1  LIG1        0.0239
     52 H           1.9838    3.6951  -14.4429 H       1  LIG1        0.0239
     53 H           4.7435    6.0370  -15.5293 H       1  LIG1        0.0566
     54 H           3.0061    5.8944  -15.2681 H       1  LIG1        0.0566
     55 H           6.2204    3.8277  -15.3947 H       1  LIG1        0.0239
     56 H           5.0713    3.0372  -16.4827 H       1  LIG1        0.0239
     57 H           5.4435    2.2965  -14.9435 H       1  LIG1        0.0239
     58 H           4.5347    4.9793  -17.4184 H       1  LIG1        0.2094
     59 H           3.0330    5.3298   -8.0369 H       1  LIG1        0.1753
     60 H           3.6289    5.4054   -3.9137 H       1  LIG1        0.1049
     61 H           5.8219   -0.6018  -11.7354 H       1  LIG1        0.0278
     62 H           5.6650   -1.9237  -10.5490 H       1  LIG1        0.0278
     63 H           7.2128   -1.0738  -10.7612 H       1  LIG1        0.0278
     64 H           5.5585    0.2772   -3.1594 H       1  LIG1        0.0731
     65 H           5.1606    1.9431   -2.7788 H       1  LIG1        0.0731
     66 H           7.5729    1.7839   -2.5615 H       1  LIG1        0.0732
     67 H           7.3096    2.5696   -4.1502 H       1  LIG1        0.0732
@<TRIPOS>BOND
     1     1     2   ar
     2     2     3   ar
     3     2    39    1
     4     3     4   ar
     5     4    38   ar
     6     5     1   ar
     7     6     7   ar
     8     6    33    1
     9     7     8   ar
    10     8     9   ar
    11     9    10   ar
    12    10    11   ar
    13    11     6   ar
    14    12    13   ar
    15    13    14   ar
    16    14    15   ar
    17    15    16   ar
    18    16    18   ar
    19    17    18    1
    20    17    21    1
    21    17    20    1
    22    17    19    1
    23    18    12   ar
    24    20    22    1
    25    23    26    1
    26    23    25    2
    27    23    24    2
    28    23    14    1
    29    26    32    1
    30    27    28   ar
    31    27     9    1
    32    28    29   ar
    33    29    30   ar
    34    30    31   ar
    35    31    32   ar
    36    32    27   ar
    37    34    35    1
    38    34    28    1
    39    35    36    1
    40    36    37    1
    41    37    38    1
    42    38     5   ar
    43     1    40    1
    44     3    41    1
    45     7    42    1
    46     8    43    1
    47    10    44    1
    48    11    45    1
    49    12    46    1
    50    13    47    1
    51    15    48    1
    52    16    49    1
    53    19    50    1
    54    19    51    1
    55    19    52    1
    56    20    53    1
    57    20    54    1
    58    21    55    1
    59    21    56    1
    60    21    57    1
    61    22    58    1
    62    26    59    1
    63    30    60    1
    64    33    61    1
    65    33    62    1
    66    33    63    1
    67    35    64    1
    68    35    65    1
    69    36    66    1
    70    36    67    1
@<TRIPOS>MOLECULE
*****
 67 70 0 0 0
SMALL
GASTEIGER

@<TRIPOS>ATOM
      1 C          10.6069    1.8398   -5.0439 C.ar    1  LIG1        0.0483
      2 C          10.9878    0.5342   -5.2414 C.ar    1  LIG1        0.0543
      3 C          10.1630   -0.4161   -4.6835 C.ar    1  LIG1        0.0483
      4 N           9.0408   -0.1203   -3.9903 N.ar    1  LIG1       -0.2022
      5 N           9.4994    2.1927   -4.3611 N.ar    1  LIG1       -0.2022
      6 C           4.6381   -0.6313   -9.0515 C.ar    1  LIG1       -0.0504
      7 C           5.7237   -0.2824   -8.2443 C.ar    1  LIG1       -0.0583
      8 C           5.6621    0.8488   -7.4215 C.ar    1  LIG1       -0.0535
      9 C           4.5168    1.6640   -7.3825 C.ar    1  LIG1       -0.0094
     10 C           3.4455    1.3139   -8.2226 C.ar    1  LIG1       -0.0535
     11 C           3.5064    0.1878   -9.0499 C.ar    1  LIG1       -0.0583
     12 C           6.2772    2.3689  -11.4510 C.ar    1  LIG1       -0.0561
     13 C           6.0678    3.1227  -10.2947 C.ar    1  LIG1       -0.0348
     14 C           5.3333    4.3031  -10.3549 C.ar    1  LIG1        0.1086
     15 C           4.8598    4.7710  -11.5780 C.ar    1  LIG1       -0.0348
     16 C           5.0944    4.0229  -12.7376 C.ar    1  LIG1       -0.0561
     17 C           6.0277    1.9849  -13.9902 C.3     1  LIG1        0.0132
     18 C           5.7893    2.7946  -12.6980 C.ar    1  LIG1       -0.0394
     19 C           6.6308    0.5814  -13.7320 C.3     1  LIG1       -0.0537
     20 C           4.6840    1.7922  -14.7516 C.3     1  LIG1        0.0533
     21 C           7.0351    2.7568  -14.8699 C.3     1  LIG1       -0.0537
     22 O           4.8202    0.9916  -15.9239 O.3     1  LIG1       -0.3942
     23 S           5.1087    5.2503   -8.8683 S.O2    1  LIG1        0.0735
     24 O           4.6437    6.5651   -9.2654 O.2     1  LIG1       -0.1499
     25 O           6.2955    5.0715   -8.0638 O.2     1  LIG1       -0.1499
     26 N           3.7683    4.4759   -8.1684 N.pl3   1  LIG1       -0.1988
     27 C           4.4087    2.8076   -6.4532 C.ar    1  LIG1        0.0847
     28 C           4.6225    2.6920   -5.0809 C.ar    1  LIG1        0.2276
     29 N           4.4327    3.6861   -4.1914 N.ar    1  LIG1       -0.2008
     30 C           4.0243    4.8543   -4.6936 C.ar    1  LIG1        0.1219
     31 N           3.7670    5.1074   -5.9789 N.ar    1  LIG1       -0.2186
     32 C           3.9874    4.0815   -6.8168 C.ar    1  LIG1        0.1524
     33 C           4.6812   -1.8494   -9.9253 C.3     1  LIG1       -0.0397
     34 O           5.0032    1.4521   -4.6086 O.3     1  LIG1       -0.4724
     35 C           5.2736    1.3186   -3.2089 C.3     1  LIG1        0.1252
     36 C           6.6180    0.6044   -3.0608 C.3     1  LIG1        0.1267
     37 O           7.6408    1.5936   -3.1880 O.3     1  LIG1       -0.4590
     38 C           8.7546    1.1881   -3.8760 C.ar    1  LIG1        0.3180
     39 BR         12.5286    0.0799   -6.2111 Br      1  LIG1       -0.0472
     40 H          11.1847    2.6722   -5.4347 H       1  LIG1        0.0843
     41 H          10.3766   -1.4769   -4.7767 H       1  LIG1        0.0843
     42 H           6.6219   -0.8958   -8.2337 H       1  LIG1        0.0620
     43 H           6.5220    1.0822   -6.7944 H       1  LIG1        0.0624
     44 H           2.5327    1.9065   -8.2274 H       1  LIG1        0.0624
     45 H           2.6532   -0.0549   -9.6798 H       1  LIG1        0.0620
     46 H           6.8399    1.4461  -11.3404 H       1  LIG1        0.0621
     47 H           6.4862    2.7799   -9.3526 H       1  LIG1        0.0637
     48 H           4.3243    5.7153  -11.6464 H       1  LIG1        0.0637
     49 H           4.7315    4.4267  -13.6808 H       1  LIG1        0.0621
     50 H           7.6143    0.6436  -13.2520 H       1  LIG1        0.0239
     51 H           6.7783    0.0256  -14.6648 H       1  LIG1        0.0239
     52 H           5.9759   -0.0210  -13.0913 H       1  LIG1        0.0239
     53 H           4.2440    2.7449  -15.0639 H       1  LIG1        0.0566
     54 H           3.9511    1.2962  -14.1044 H       1  LIG1        0.0566
     55 H           6.6340    3.7232  -15.1952 H       1  LIG1        0.0239
     56 H           7.3013    2.1919  -15.7702 H       1  LIG1        0.0239
     57 H           7.9648    2.9556  -14.3227 H       1  LIG1        0.0239
     58 H           5.3175    1.5089  -16.5797 H       1  LIG1        0.2094
     59 H           3.0240    5.1744   -8.1773 H       1  LIG1        0.1753
     60 H           3.8848    5.6696   -3.9919 H       1  LIG1        0.1049
     61 H           5.5041   -2.5142   -9.6427 H       1  LIG1        0.0278
     62 H           4.8127   -1.5591  -10.9719 H       1  LIG1        0.0278
     63 H           3.7523   -2.4216   -9.8254 H       1  LIG1        0.0278
     64 H           4.4772    0.6925   -2.7940 H       1  LIG1        0.0731
     65 H           5.2984    2.2640   -2.6582 H       1  LIG1        0.0731
     66 H           6.6850   -0.1887   -3.8154 H       1  LIG1        0.0732
     67 H           6.7003    0.1651   -2.0608 H       1  LIG1        0.0732
@<TRIPOS>BOND
     1     1     2   ar
     2     2     3   ar
     3     2    39    1
     4     3     4   ar
     5     4    38   ar
     6     5     1   ar
     7     6     7   ar
     8     6    33    1
     9     7     8   ar
    10     8     9   ar
    11     9    10   ar
    12    10    11   ar
    13    11     6   ar
    14    12    13   ar
    15    13    14   ar
    16    14    15   ar
    17    15    16   ar
    18    16    18   ar
    19    17    18    1
    20    17    21    1
    21    17    20    1
    22    17    19    1
    23    18    12   ar
    24    20    22    1
    25    23    26    1
    26    23    25    2
    27    23    24    2
    28    23    14    1
    29    26    32    1
    30    27    28   ar
    31    27     9    1
    32    28    29   ar
    33    29    30   ar
    34    30    31   ar
    35    31    32   ar
    36    32    27   ar
    37    34    35    1
    38    34    28    1
    39    35    36    1
    40    36    37    1
    41    37    38    1
    42    38     5   ar
    43     1    40    1
    44     3    41    1
    45     7    42    1
    46     8    43    1
    47    10    44    1
    48    11    45    1
    49    12    46    1
    50    13    47    1
    51    15    48    1
    52    16    49    1
    53    19    50    1
    54    19    51    1
    55    19    52    1
    56    20    53    1
    57    20    54    1
    58    21    55    1
    59    21    56    1
    60    21    57    1
    61    22    58    1
    62    26    59    1
    63    30    60    1
    64    33    61    1
    65    33    62    1
    66    33    63    1
    67    35    64    1
    68    35    65    1
    69    36    66    1
    70    36    67    1
@<TRIPOS>MOLECULE
*****
 67 70 0 0 0
SMALL
GASTEIGER

@<TRIPOS>ATOM
      1 C           9.4124   -0.6239   -2.4337 C.ar    1  LIG1        0.0483
      2 C          10.3907   -0.9963   -3.3267 C.ar    1  LIG1        0.0543
      3 C          10.5226   -0.1898   -4.4317 C.ar    1  LIG1        0.0483
      4 N           9.7588    0.8996   -4.6506 N.ar    1  LIG1       -0.2022
      5 N           8.6120    0.4508   -2.6060 N.ar    1  LIG1       -0.2022
      6 C           4.4469   -0.2823   -9.4660 C.ar    1  LIG1       -0.0504
      7 C           3.8086   -0.4063   -8.2323 C.ar    1  LIG1       -0.0583
      8 C           3.8409    0.6460   -7.3105 C.ar    1  LIG1       -0.0535
      9 C           4.5107    1.8557   -7.5841 C.ar    1  LIG1       -0.0094
     10 C           5.1722    1.9466   -8.8160 C.ar    1  LIG1       -0.0535
     11 C           5.1256    0.9041   -9.7519 C.ar    1  LIG1       -0.0583
     12 C           3.9672    9.4875   -9.0178 C.ar    1  LIG1       -0.0561
     13 C           4.1403    8.1412   -9.3550 C.ar    1  LIG1       -0.0348
     14 C           4.6527    7.2542   -8.4110 C.ar    1  LIG1        0.1086
     15 C           5.0231    7.7168   -7.1501 C.ar    1  LIG1       -0.0348
     16 C           4.8197    9.0591   -6.8104 C.ar    1  LIG1       -0.0561
     17 C           4.0891   11.4718   -7.3973 C.3     1  LIG1        0.0132
     18 C           4.2805    9.9752   -7.7320 C.ar    1  LIG1       -0.0394
     19 C           5.1828   12.2792   -8.1298 C.3     1  LIG1       -0.0537
     20 C           2.6822   11.9555   -7.8600 C.3     1  LIG1        0.0533
     21 C           4.2295   11.7794   -5.8860 C.3     1  LIG1       -0.0537
     22 O           2.4428   13.3296   -7.5634 O.3     1  LIG1       -0.3942
     23 S           4.9702    5.5626   -8.8670 S.O2    1  LIG1        0.0735
     24 O           6.2078    5.1680   -8.2251 O.2     1  LIG1       -0.1499
     25 O           4.8252    5.4860  -10.3069 O.2     1  LIG1       -0.1499
     26 N           3.6542    4.7054   -8.2041 N.pl3   1  LIG1       -0.1988
     27 C           4.4353    2.9694   -6.6101 C.ar    1  LIG1        0.0847
     28 C           4.7374    2.8195   -5.2597 C.ar    1  LIG1        0.2276
     29 N           4.4477    3.7268   -4.3008 N.ar    1  LIG1       -0.2008
     30 C           3.8644    4.8520   -4.7134 C.ar    1  LIG1        0.1219
     31 N           3.5824    5.1644   -5.9786 N.ar    1  LIG1       -0.2186
     32 C           3.9000    4.2244   -6.8864 C.ar    1  LIG1        0.1524
     33 C           4.3458   -1.3735  -10.4895 C.3     1  LIG1       -0.0397
     34 O           5.3848    1.6617   -4.8738 O.3     1  LIG1       -0.4724
     35 C           5.7582    1.5745   -3.4927 C.3     1  LIG1        0.1252
     36 C           6.9491    2.4689   -3.1188 C.3     1  LIG1        0.1267
     37 O           8.0667    2.2802   -3.9867 O.3     1  LIG1       -0.4590
     38 C           8.8250    1.1661   -3.7255 C.ar    1  LIG1        0.3180
     39 BR         11.4713   -2.5062   -3.0555 Br      1  LIG1       -0.0472
     40 H           9.2292   -1.1892   -1.5245 H       1  LIG1        0.0843
     41 H          11.2613   -0.3895   -5.2023 H       1  LIG1        0.0843
     42 H           3.2707   -1.3172   -7.9797 H       1  LIG1        0.0620
     43 H           3.3167    0.5129   -6.3651 H       1  LIG1        0.0624
     44 H           5.7398    2.8319   -9.0833 H       1  LIG1        0.0624
     45 H           5.6242    1.0358  -10.7098 H       1  LIG1        0.0620
     46 H           3.6045   10.1567   -9.7960 H       1  LIG1        0.0621
     47 H           3.9025    7.8099  -10.3642 H       1  LIG1        0.0637
     48 H           5.4816    7.0464   -6.4264 H       1  LIG1        0.0637
     49 H           5.1197    9.3666   -5.8122 H       1  LIG1        0.0621
     50 H           6.1849   11.9380   -7.8423 H       1  LIG1        0.0239
     51 H           5.1185   13.3476   -7.8949 H       1  LIG1        0.0239
     52 H           5.1029   12.1770   -9.2180 H       1  LIG1        0.0239
     53 H           1.8874   11.3603   -7.3947 H       1  LIG1        0.0566
     54 H           2.5626   11.8586   -8.9434 H       1  LIG1        0.0566
     55 H           3.4900   11.2235   -5.2979 H       1  LIG1        0.0239
     56 H           4.0890   12.8448   -5.6725 H       1  LIG1        0.0239
     57 H           5.2267   11.5257   -5.5085 H       1  LIG1        0.0239
     58 H           2.1739   13.3897   -6.6311 H       1  LIG1        0.2094
     59 H           2.8505    5.3298   -8.1601 H       1  LIG1        0.1753
     60 H           3.6105    5.5834   -3.9539 H       1  LIG1        0.1049
     61 H           4.3068   -2.3568  -10.0098 H       1  LIG1        0.0278
     62 H           5.2145   -1.3699  -11.1562 H       1  LIG1        0.0278
     63 H           3.4408   -1.2377  -11.0903 H       1  LIG1        0.0278
     64 H           6.0298    0.5256   -3.3342 H       1  LIG1        0.0731
     65 H           4.8961    1.7639   -2.8413 H       1  LIG1        0.0731
     66 H           7.2217    2.3446   -2.0632 H       1  LIG1        0.0732
     67 H           6.6771    3.5236   -3.2221 H       1  LIG1        0.0732
@<TRIPOS>BOND
     1     1     2   ar
     2     2     3   ar
     3     2    39    1
     4     3     4   ar
     5     4    38   ar
     6     5     1   ar
     7     6     7   ar
     8     6    33    1
     9     7     8   ar
    10     8     9   ar
    11     9    10   ar
    12    10    11   ar
    13    11     6   ar
    14    12    13   ar
    15    13    14   ar
    16    14    15   ar
    17    15    16   ar
    18    16    18   ar
    19    17    18    1
    20    17    21    1
    21    17    20    1
    22    17    19    1
    23    18    12   ar
    24    20    22    1
    25    23    26    1
    26    23    25    2
    27    23    24    2
    28    23    14    1
    29    26    32    1
    30    27    28   ar
    31    27     9    1
    32    28    29   ar
    33    29    30   ar
    34    30    31   ar
    35    31    32   ar
    36    32    27   ar
    37    34    35    1
    38    34    28    1
    39    35    36    1
    40    36    37    1
    41    37    38    1
    42    38     5   ar
    43     1    40    1
    44     3    41    1
    45     7    42    1
    46     8    43    1
    47    10    44    1
    48    11    45    1
    49    12    46    1
    50    13    47    1
    51    15    48    1
    52    16    49    1
    53    19    50    1
    54    19    51    1
    55    19    52    1
    56    20    53    1
    57    20    54    1
    58    21    55    1
    59    21    56    1
    60    21    57    1
    61    22    58    1
    62    26    59    1
    63    30    60    1
    64    33    61    1
    65    33    62    1
    66    33    63    1
    67    35    64    1
    68    35    65    1
    69    36    66    1
    70    36    67    1
@<TRIPOS>MOLECULE
*****
 67 70 0 0 0
SMALL
GASTEIGER

@<TRIPOS>ATOM
      1 C           1.1838   -2.8358   -4.3327 C.ar    1  LIG1        0.0483
      2 C           0.7999   -3.1717   -3.0553 C.ar    1  LIG1        0.0543
      3 C           1.5232   -2.5840   -2.0417 C.ar    1  LIG1        0.0483
      4 N           2.5462   -1.7291   -2.2538 N.ar    1  LIG1       -0.2022
      5 N           2.2052   -1.9981   -4.6054 N.ar    1  LIG1       -0.2022
      6 C           6.0528    0.0568   -9.7027 C.ar    1  LIG1       -0.0504
      7 C           4.9191    0.8267   -9.9547 C.ar    1  LIG1       -0.0583
      8 C           4.4408    1.7269   -8.9925 C.ar    1  LIG1       -0.0535
      9 C           5.0841    1.9217   -7.7548 C.ar    1  LIG1       -0.0094
     10 C           6.2348    1.1406   -7.5352 C.ar    1  LIG1       -0.0535
     11 C           6.6960    0.2070   -8.4744 C.ar    1  LIG1       -0.0583
     12 C           2.8141    8.8949   -8.6912 C.ar    1  LIG1       -0.0561
     13 C           3.3634    7.6506   -8.3562 C.ar    1  LIG1       -0.0348
     14 C           4.4053    7.1300   -9.1229 C.ar    1  LIG1        0.1086
     15 C           4.9139    7.8644  -10.1944 C.ar    1  LIG1       -0.0348
     16 C           4.3733    9.1162  -10.5071 C.ar    1  LIG1       -0.0561
     17 C           2.6706   11.0230  -10.1170 C.3     1  LIG1        0.0132
     18 C           3.3016    9.6550   -9.7761 C.ar    1  LIG1       -0.0394
     19 C           2.8245   11.9692   -8.9057 C.3     1  LIG1       -0.0537
     20 C           3.2635   11.7209  -11.3802 C.3     1  LIG1        0.0533
     21 C           1.1630   10.8243  -10.4074 C.3     1  LIG1       -0.0537
     22 O           4.6163   12.1391  -11.2196 O.3     1  LIG1       -0.3942
     23 S           5.0970    5.5119   -8.8036 S.O2    1  LIG1        0.0735
     24 O           6.0124    5.6714   -7.6963 O.2     1  LIG1       -0.1499
     25 O           5.5236    4.9972  -10.0834 O.2     1  LIG1       -0.1499
     26 N           3.7483    4.5839   -8.3430 N.pl3   1  LIG1       -0.1988
     27 C           4.5422    2.8678   -6.7319 C.ar    1  LIG1        0.0847
     28 C           4.5873    2.6527   -5.3521 C.ar    1  LIG1        0.2276
     29 N           4.0295    3.4599   -4.4193 N.ar    1  LIG1       -0.2008
     30 C           3.3977    4.5404   -4.8746 C.ar    1  LIG1        0.1219
     31 N           3.2602    4.8793   -6.1552 N.ar    1  LIG1       -0.2186
     32 C           3.8532    4.0450   -7.0310 C.ar    1  LIG1        0.1524
     33 C           6.5295   -0.9532  -10.7020 C.3     1  LIG1       -0.0397
     34 O           5.2379    1.5284   -4.8901 O.3     1  LIG1       -0.4724
     35 C           5.1892    1.2821   -3.4813 C.3     1  LIG1        0.1252
     36 C           3.9265    0.5093   -3.1067 C.3     1  LIG1        0.1267
     37 O           3.9481   -0.7283   -3.8234 O.3     1  LIG1       -0.4590
     38 C           2.8346   -1.4769   -3.5422 C.ar    1  LIG1        0.3180
     39 BR         -0.6105   -4.3619   -2.7156 Br      1  LIG1       -0.0472
     40 H           0.6817   -3.2415   -5.2061 H       1  LIG1        0.0843
     41 H           1.3091   -2.7895   -0.9974 H       1  LIG1        0.0843
     42 H           4.3910    0.7338  -10.9002 H       1  LIG1        0.0620
     43 H           3.5347    2.2732   -9.2445 H       1  LIG1        0.0624
     44 H           6.8025    1.2291   -6.6108 H       1  LIG1        0.0624
     45 H           7.5656   -0.4002   -8.2329 H       1  LIG1        0.0620
     46 H           1.9946    9.2699   -8.0810 H       1  LIG1        0.0621
     47 H           2.9714    7.1224   -7.4928 H       1  LIG1        0.0637
     48 H           5.7413    7.4790  -10.7871 H       1  LIG1        0.0637
     49 H           4.8237    9.6564  -11.3365 H       1  LIG1        0.0621
     50 H           2.2600   11.6174   -8.0349 H       1  LIG1        0.0239
     51 H           2.4550   12.9737   -9.1422 H       1  LIG1        0.0239
     52 H           3.8721   12.0588   -8.5961 H       1  LIG1        0.0239
     53 H           2.6832   12.6154  -11.6372 H       1  LIG1        0.0566
     54 H           3.2187   11.0583  -12.2523 H       1  LIG1        0.0566
     55 H           1.0099   10.1206  -11.2344 H       1  LIG1        0.0239
     56 H           0.6861   11.7723  -10.6839 H       1  LIG1        0.0239
     57 H           0.6177   10.4372   -9.5400 H       1  LIG1        0.0239
     58 H           4.6350   12.8553  -10.5629 H       1  LIG1        0.2094
     59 H           2.8821    5.1116   -8.4252 H       1  LIG1        0.1753
     60 H           2.9601    5.2027   -4.1351 H       1  LIG1        0.1049
     61 H           6.2859   -0.6396  -11.7226 H       1  LIG1        0.0278
     62 H           6.0585   -1.9224  -10.5101 H       1  LIG1        0.0278
     63 H           7.6171   -1.0715  -10.6501 H       1  LIG1        0.0278
     64 H           5.3077    2.1959   -2.8872 H       1  LIG1        0.0731
     65 H           6.0621    0.6570   -3.2597 H       1  LIG1        0.0731
     66 H           3.0303    1.0765   -3.3845 H       1  LIG1        0.0732
     67 H           3.9340    0.3360   -2.0242 H       1  LIG1        0.0732
@<TRIPOS>BOND
     1     1     2   ar
     2     2     3   ar
     3     2    39    1
     4     3     4   ar
     5     4    38   ar
     6     5     1   ar
     7     6     7   ar
     8     6    33    1
     9     7     8   ar
    10     8     9   ar
    11     9    10   ar
    12    10    11   ar
    13    11     6   ar
    14    12    13   ar
    15    13    14   ar
    16    14    15   ar
    17    15    16   ar
    18    16    18   ar
    19    17    18    1
    20    17    21    1
    21    17    20    1
    22    17    19    1
    23    18    12   ar
    24    20    22    1
    25    23    26    1
    26    23    25    2
    27    23    24    2
    28    23    14    1
    29    26    32    1
    30    27    28   ar
    31    27     9    1
    32    28    29   ar
    33    29    30   ar
    34    30    31   ar
    35    31    32   ar
    36    32    27   ar
    37    34    35    1
    38    34    28    1
    39    35    36    1
    40    36    37    1
    41    37    38    1
    42    38     5   ar
    43     1    40    1
    44     3    41    1
    45     7    42    1
    46     8    43    1
    47    10    44    1
    48    11    45    1
    49    12    46    1
    50    13    47    1
    51    15    48    1
    52    16    49    1
    53    19    50    1
    54    19    51    1
    55    19    52    1
    56    20    53    1
    57    20    54    1
    58    21    55    1
    59    21    56    1
    60    21    57    1
    61    22    58    1
    62    26    59    1
    63    30    60    1
    64    33    61    1
    65    33    62    1
    66    33    63    1
    67    35    64    1
    68    35    65    1
    69    36    66    1
    70    36    67    1
@<TRIPOS>MOLECULE
*****
 67 70 0 0 0
SMALL
GASTEIGER

@<TRIPOS>ATOM
      1 C           7.0090    4.2451    1.1838 C.ar    1  LIG1        0.0483
      2 C           5.8611    4.9681    0.9592 C.ar    1  LIG1        0.0543
      3 C           5.2081    4.6912   -0.2188 C.ar    1  LIG1        0.0483
      4 N           5.6444    3.7830   -1.1179 N.ar    1  LIG1       -0.2022
      5 N           7.4882    3.3216    0.3228 N.ar    1  LIG1       -0.2022
      6 C           5.8649    0.2959   -9.6645 C.ar    1  LIG1       -0.0504
      7 C           4.4985    0.5446   -9.5251 C.ar    1  LIG1       -0.0583
      8 C           4.0264    1.3435   -8.4790 C.ar    1  LIG1       -0.0535
      9 C           4.9025    1.9277   -7.5493 C.ar    1  LIG1       -0.0094
     10 C           6.2708    1.6383   -7.6795 C.ar    1  LIG1       -0.0535
     11 C           6.7456    0.8262   -8.7173 C.ar    1  LIG1       -0.0583
     12 C           1.2121    8.1319   -6.8797 C.ar    1  LIG1       -0.0561
     13 C           1.9125    7.0695   -7.4660 C.ar    1  LIG1       -0.0348
     14 C           1.2130    5.9777   -7.9751 C.ar    1  LIG1        0.1086
     15 C          -0.1806    5.9618   -7.9310 C.ar    1  LIG1       -0.0348
     16 C          -0.8724    7.0381   -7.3685 C.ar    1  LIG1       -0.0561
     17 C          -0.9842    9.3182   -6.2012 C.3     1  LIG1        0.0132
     18 C          -0.1939    8.1400   -6.8109 C.ar    1  LIG1       -0.0394
     19 C          -0.1218   10.2201   -5.2860 C.3     1  LIG1       -0.0537
     20 C          -1.6050   10.1750   -7.3397 C.3     1  LIG1        0.0533
     21 C          -2.1396    8.7898   -5.3129 C.3     1  LIG1       -0.0537
     22 O          -0.6258   10.8325   -8.1396 O.3     1  LIG1       -0.3942
     23 S           2.0394    4.6213   -8.7649 S.O2    1  LIG1        0.0735
     24 O           2.2534    5.0361  -10.1356 O.2     1  LIG1       -0.1499
     25 O           1.2905    3.4194   -8.4580 O.2     1  LIG1       -0.1499
     26 N           3.5580    4.4758   -8.0898 N.pl3   1  LIG1       -0.1988
     27 C           4.4017    2.8330   -6.4965 C.ar    1  LIG1        0.0847
     28 C           4.6194    2.6408   -5.1370 C.ar    1  LIG1        0.2276
     29 N           4.1927    3.4824   -4.1750 N.ar    1  LIG1       -0.2008
     30 C           3.5409    4.5700   -4.5830 C.ar    1  LIG1        0.1219
     31 N           3.2948    4.8962   -5.8511 N.ar    1  LIG1       -0.2186
     32 C           3.6919    4.0016   -6.7673 C.ar    1  LIG1        0.1524
     33 C           6.3687   -0.5726  -10.7786 C.3     1  LIG1       -0.0397
     34 O           5.3422    1.5293   -4.7425 O.3     1  LIG1       -0.4724
     35 C           5.6619    1.4727   -3.3457 C.3     1  LIG1        0.1252
     36 C           6.8753    2.3421   -3.0088 C.3     1  LIG1        0.1267
     37 O           7.2780    2.1763   -1.6495 O.3     1  LIG1       -0.4590
     38 C           6.7820    3.1415   -0.8038 C.ar    1  LIG1        0.3180
     39 BR          5.2270    6.2476    2.1769 Br      1  LIG1       -0.0472
     40 H           7.6018    4.3812    2.0837 H       1  LIG1        0.0843
     41 H           4.2880    5.1988   -0.4924 H       1  LIG1        0.0843
     42 H           3.7853    0.1272  -10.2331 H       1  LIG1        0.0620
     43 H           2.9530    1.5083   -8.4054 H       1  LIG1        0.0624
     44 H           6.9894    2.0484   -6.9729 H       1  LIG1        0.0624
     45 H           7.8113    0.6193   -8.7855 H       1  LIG1        0.0620
     46 H           1.8001    8.9607   -6.4961 H       1  LIG1        0.0621
     47 H           2.9958    7.1141   -7.5119 H       1  LIG1        0.0637
     48 H          -0.7381    5.1303   -8.3583 H       1  LIG1        0.0637
     49 H          -1.9591    7.0034   -7.3927 H       1  LIG1        0.0621
     50 H           0.3185    9.6432   -4.4639 H       1  LIG1        0.0239
     51 H          -0.7273   11.0185   -4.8404 H       1  LIG1        0.0239
     52 H           0.6965   10.7103   -5.8229 H       1  LIG1        0.0239
     53 H          -2.2666   10.9472   -6.9292 H       1  LIG1        0.0566
     54 H          -2.2122    9.5583   -8.0117 H       1  LIG1        0.0566
     55 H          -2.9084    8.2681   -5.8926 H       1  LIG1        0.0239
     56 H          -2.6477    9.6125   -4.7958 H       1  LIG1        0.0239
     57 H          -1.7674    8.0962   -4.5497 H       1  LIG1        0.0239
     58 H          -0.2385   11.5500   -7.6124 H       1  LIG1        0.2094
     59 H           4.2411    5.1515   -8.4141 H       1  LIG1        0.1753
     60 H           3.1969    5.2560   -3.8170 H       1  LIG1        0.1049
     61 H           5.7152   -0.5021  -11.6551 H       1  LIG1        0.0278
     62 H           6.4104   -1.6163  -10.4531 H       1  LIG1        0.0278
     63 H           7.3684   -0.2580  -11.0961 H       1  LIG1        0.0278
     64 H           5.9183    0.4285   -3.1274 H       1  LIG1        0.0731
     65 H           4.7934    1.6807   -2.7089 H       1  LIG1        0.0731
     66 H           6.7388    3.3952   -3.2865 H       1  LIG1        0.0732
     67 H           7.7172    2.0063   -3.6272 H       1  LIG1        0.0732
@<TRIPOS>BOND
     1     1     2   ar
     2     2     3   ar
     3     2    39    1
     4     3     4   ar
     5     4    38   ar
     6     5     1   ar
     7     6     7   ar
     8     6    33    1
     9     7     8   ar
    10     8     9   ar
    11     9    10   ar
    12    10    11   ar
    13    11     6   ar
    14    12    13   ar
    15    13    14   ar
    16    14    15   ar
    17    15    16   ar
    18    16    18   ar
    19    17    18    1
    20    17    21    1
    21    17    20    1
    22    17    19    1
    23    18    12   ar
    24    20    22    1
    25    23    26    1
    26    23    25    2
    27    23    24    2
    28    23    14    1
    29    26    32    1
    30    27    28   ar
    31    27     9    1
    32    28    29   ar
    33    29    30   ar
    34    30    31   ar
    35    31    32   ar
    36    32    27   ar
    37    34    35    1
    38    34    28    1
    39    35    36    1
    40    36    37    1
    41    37    38    1
    42    38     5   ar
    43     1    40    1
    44     3    41    1
    45     7    42    1
    46     8    43    1
    47    10    44    1
    48    11    45    1
    49    12    46    1
    50    13    47    1
    51    15    48    1
    52    16    49    1
    53    19    50    1
    54    19    51    1
    55    19    52    1
    56    20    53    1
    57    20    54    1
    58    21    55    1
    59    21    56    1
    60    21    57    1
    61    22    58    1
    62    26    59    1
    63    30    60    1
    64    33    61    1
    65    33    62    1
    66    33    63    1
    67    35    64    1
    68    35    65    1
    69    36    66    1
    70    36    67    1
@<TRIPOS>MOLECULE
*****
 67 70 0 0 0
SMALL
GASTEIGER

@<TRIPOS>ATOM
      1 C           3.5374   -3.9122   -4.1288 C.ar    1  LIG1        0.0483
      2 C           4.5258   -4.2081   -3.2207 C.ar    1  LIG1        0.0543
      3 C           5.0602   -3.1303   -2.5531 C.ar    1  LIG1        0.0483
      4 N           4.6594   -1.8548   -2.7497 N.ar    1  LIG1       -0.2022
      5 N           3.1016   -2.6586   -4.3698 N.ar    1  LIG1       -0.2022
      6 C           6.0471    0.0576   -9.7246 C.ar    1  LIG1       -0.0504
      7 C           4.8843    0.7934   -9.9495 C.ar    1  LIG1       -0.0583
      8 C           4.4076    1.6879   -8.9820 C.ar    1  LIG1       -0.0535
      9 C           5.0819    1.9028   -7.7653 C.ar    1  LIG1       -0.0094
     10 C           6.2600    1.1571   -7.5692 C.ar    1  LIG1       -0.0535
     11 C           6.7225    0.2334   -8.5173 C.ar    1  LIG1       -0.0583
     12 C           2.8476    8.8875   -8.6757 C.ar    1  LIG1       -0.0561
     13 C           3.4030    7.6448   -8.3410 C.ar    1  LIG1       -0.0348
     14 C           4.4322    7.1181   -9.1201 C.ar    1  LIG1        0.1086
     15 C           4.9222    7.8456  -10.2049 C.ar    1  LIG1       -0.0348
     16 C           4.3766    9.0963  -10.5180 C.ar    1  LIG1       -0.0561
     17 C           2.6804   11.0060  -10.1130 C.3     1  LIG1        0.0132
     18 C           3.3176    9.6407   -9.7728 C.ar    1  LIG1       -0.0394
     19 C           2.8343   11.9557   -8.9044 C.3     1  LIG1       -0.0537
     20 C           3.2656   11.7051  -11.3790 C.3     1  LIG1        0.0533
     21 C           1.1728   10.7995  -10.3972 C.3     1  LIG1       -0.0537
     22 O           4.6198   12.1217  -11.2264 O.3     1  LIG1       -0.3942
     23 S           5.1237    5.5025   -8.7991 S.O2    1  LIG1        0.0735
     24 O           6.0576    5.6621   -7.7079 O.2     1  LIG1       -0.1499
     25 O           5.5355    4.9801  -10.0868 O.2     1  LIG1       -0.1499
     26 N           3.7803    4.5800   -8.3230 N.pl3   1  LIG1       -0.1988
     27 C           4.5550    2.8401   -6.7331 C.ar    1  LIG1        0.0847
     28 C           4.5919    2.5926   -5.3604 C.ar    1  LIG1        0.2276
     29 N           4.0947    3.4153   -4.4088 N.ar    1  LIG1       -0.2008
     30 C           3.5022    4.5276   -4.8433 C.ar    1  LIG1        0.1219
     31 N           3.3513    4.8833   -6.1190 N.ar    1  LIG1       -0.2186
     32 C           3.9009    4.0393   -7.0130 C.ar    1  LIG1        0.1524
     33 C           6.5218   -0.9456  -10.7321 C.3     1  LIG1       -0.0397
     34 O           5.1441    1.4011   -4.9361 O.3     1  LIG1       -0.4724
     35 C           5.0929    1.1273   -3.5332 C.3     1  LIG1        0.1252
     36 C           3.7172    0.6168   -3.0938 C.3     1  LIG1        0.1267
     37 O           3.2206   -0.4196   -3.9426 O.3     1  LIG1       -0.4590
     38 C           3.6891   -1.6797   -3.6643 C.ar    1  LIG1        0.3180
     39 BR          5.1033   -5.9660   -2.9084 Br      1  LIG1       -0.0472
     40 H           3.0448   -4.6853   -4.7109 H       1  LIG1        0.0843
     41 H           5.8491   -3.2533   -1.8169 H       1  LIG1        0.0843
     42 H           4.3320    0.6781  -10.8794 H       1  LIG1        0.0620
     43 H           3.4829    2.2138   -9.2069 H       1  LIG1        0.0624
     44 H           6.8438    1.2711   -6.6579 H       1  LIG1        0.0624
     45 H           7.6182   -0.3439   -8.2996 H       1  LIG1        0.0620
     46 H           2.0365    9.2660   -8.0557 H       1  LIG1        0.0621
     47 H           3.0232    7.1223   -7.4685 H       1  LIG1        0.0637
     48 H           5.7381    7.4554  -10.8113 H       1  LIG1        0.0637
     49 H           4.8128    9.6304  -11.3594 H       1  LIG1        0.0621
     50 H           2.2718   11.6056   -8.0316 H       1  LIG1        0.0239
     51 H           2.4620   12.9588   -9.1429 H       1  LIG1        0.0239
     52 H           3.8821   12.0488   -8.5968 H       1  LIG1        0.0239
     53 H           2.6842   12.6004  -11.6309 H       1  LIG1        0.0566
     54 H           3.2146   11.0442  -12.2520 H       1  LIG1        0.0566
     55 H           1.0199   10.0962  -11.2244 H       1  LIG1        0.0239
     56 H           0.6895   11.7453  -10.6704 H       1  LIG1        0.0239
     57 H           0.6337   10.4079   -9.5278 H       1  LIG1        0.0239
     58 H           4.6439   12.8342  -10.5658 H       1  LIG1        0.2094
     59 H           2.9168    5.1090   -8.3925 H       1  LIG1        0.1753
     60 H           3.1053    5.2000   -4.0904 H       1  LIG1        0.1049
     61 H           6.2750   -0.6241  -11.7495 H       1  LIG1        0.0278
     62 H           6.0512   -1.9159  -10.5447 H       1  LIG1        0.0278
     63 H           7.6091   -1.0653  -10.6842 H       1  LIG1        0.0278
     64 H           5.4137    1.9899   -2.9357 H       1  LIG1        0.0731
     65 H           5.8469    0.3527   -3.3607 H       1  LIG1        0.0731
     66 H           2.9857    1.4278   -3.1695 H       1  LIG1        0.0732
     67 H           3.7180    0.3174   -2.0381 H       1  LIG1        0.0732
@<TRIPOS>BOND
     1     1     2   ar
     2     2     3   ar
     3     2    39    1
     4     3     4   ar
     5     4    38   ar
     6     5     1   ar
     7     6     7   ar
     8     6    33    1
     9     7     8   ar
    10     8     9   ar
    11     9    10   ar
    12    10    11   ar
    13    11     6   ar
    14    12    13   ar
    15    13    14   ar
    16    14    15   ar
    17    15    16   ar
    18    16    18   ar
    19    17    18    1
    20    17    21    1
    21    17    20    1
    22    17    19    1
    23    18    12   ar
    24    20    22    1
    25    23    26    1
    26    23    25    2
    27    23    24    2
    28    23    14    1
    29    26    32    1
    30    27    28   ar
    31    27     9    1
    32    28    29   ar
    33    29    30   ar
    34    30    31   ar
    35    31    32   ar
    36    32    27   ar
    37    34    35    1
    38    34    28    1
    39    35    36    1
    40    36    37    1
    41    37    38    1
    42    38     5   ar
    43     1    40    1
    44     3    41    1
    45     7    42    1
    46     8    43    1
    47    10    44    1
    48    11    45    1
    49    12    46    1
    50    13    47    1
    51    15    48    1
    52    16    49    1
    53    19    50    1
    54    19    51    1
    55    19    52    1
    56    20    53    1
    57    20    54    1
    58    21    55    1
    59    21    56    1
    60    21    57    1
    61    22    58    1
    62    26    59    1
    63    30    60    1
    64    33    61    1
    65    33    62    1
    66    33    63    1
    67    35    64    1
    68    35    65    1
    69    36    66    1
    70    36    67    1
@<TRIPOS>MOLECULE
*****
 67 70 0 0 0
SMALL
GASTEIGER

@<TRIPOS>ATOM
      1 C           9.0330   -1.1989   -1.8442 C.ar    1  LIG1        0.0483
      2 C           9.4765   -2.4784   -2.0856 C.ar    1  LIG1        0.0543
      3 C           8.6591   -3.2502   -2.8773 C.ar    1  LIG1        0.0483
      4 N           7.4942   -2.8090   -3.3967 N.ar    1  LIG1       -0.2022
      5 N           7.8745   -0.7049   -2.3332 N.ar    1  LIG1       -0.2022
      6 C           4.4328   -0.1653   -9.5855 C.ar    1  LIG1       -0.0504
      7 C           3.8816   -0.4068   -8.3265 C.ar    1  LIG1       -0.0583
      8 C           3.8912    0.5898   -7.3442 C.ar    1  LIG1       -0.0535
      9 C           4.4571    1.8563   -7.5808 C.ar    1  LIG1       -0.0094
     10 C           5.0300    2.0721   -8.8467 C.ar    1  LIG1       -0.0535
     11 C           5.0017    1.0848   -9.8408 C.ar    1  LIG1       -0.0583
     12 C           0.9373    6.1492  -12.0999 C.ar    1  LIG1       -0.0561
     13 C           0.9760    5.4461  -10.8908 C.ar    1  LIG1       -0.0348
     14 C           2.1796    5.3327  -10.1963 C.ar    1  LIG1        0.1086
     15 C           3.3422    5.9008  -10.7181 C.ar    1  LIG1       -0.0348
     16 C           3.2905    6.6170  -11.9191 C.ar    1  LIG1       -0.0561
     17 C           2.0053    7.5830  -13.9403 C.3     1  LIG1        0.0132
     18 C           2.0873    6.7715  -12.6289 C.ar    1  LIG1       -0.0394
     19 C           1.6829    6.6149  -15.0986 C.3     1  LIG1       -0.0537
     20 C           0.8831    8.6572  -13.8596 C.3     1  LIG1        0.0533
     21 C           3.3227    8.3123  -14.3014 C.3     1  LIG1       -0.0537
     22 O           1.1533    9.6415  -12.8637 O.3     1  LIG1       -0.3942
     23 S           2.1637    4.5313   -8.6010 S.O2    1  LIG1        0.0735
     24 O           1.9530    3.1230   -8.8446 O.2     1  LIG1       -0.1499
     25 O           1.2713    5.3074   -7.7737 O.2     1  LIG1       -0.1499
     26 N           3.7389    4.8175   -8.0444 N.pl3   1  LIG1       -0.1988
     27 C           4.4137    2.9172   -6.5486 C.ar    1  LIG1        0.0847
     28 C           4.7743    2.7104   -5.2156 C.ar    1  LIG1        0.2276
     29 N           4.7525    3.6614   -4.2561 N.ar    1  LIG1       -0.2008
     30 C           4.3770    4.8805   -4.6345 C.ar    1  LIG1        0.1219
     31 N           4.0470    5.2338   -5.8731 N.ar    1  LIG1       -0.2186
     32 C           4.0582    4.2415   -6.7828 C.ar    1  LIG1        0.1524
     33 C           4.3397   -1.1995  -10.6670 C.3     1  LIG1       -0.0397
     34 O           5.1686    1.4413   -4.8373 O.3     1  LIG1       -0.4724
     35 C           5.7687    1.3188   -3.5404 C.3     1  LIG1        0.1252
     36 C           5.3666   -0.0327   -2.9488 C.3     1  LIG1        0.1267
     37 O           5.9689   -1.1214   -3.6497 O.3     1  LIG1       -0.4590
     38 C           7.1508   -1.5491   -3.0915 C.ar    1  LIG1        0.3180
     39 BR         11.0904   -3.1275   -1.3815 Br      1  LIG1       -0.0472
     40 H           9.6049   -0.5050   -1.2341 H       1  LIG1        0.0843
     41 H           8.9123   -4.2752   -3.1321 H       1  LIG1        0.0843
     42 H           3.4216   -1.3661   -8.1002 H       1  LIG1        0.0620
     43 H           3.4256    0.3636   -6.3875 H       1  LIG1        0.0624
     44 H           5.4878    3.0284   -9.0898 H       1  LIG1        0.0624
     45 H           5.4162    1.3067  -10.8207 H       1  LIG1        0.0620
     46 H          -0.0163    6.2084  -12.6208 H       1  LIG1        0.0621
     47 H           0.0672    4.9965  -10.4947 H       1  LIG1        0.0637
     48 H           4.2993    5.8119  -10.2139 H       1  LIG1        0.0637
     49 H           4.2191    7.0540  -12.2758 H       1  LIG1        0.0621
     50 H           2.4417    5.8269  -15.1778 H       1  LIG1        0.0239
     51 H           1.6515    7.1436  -16.0581 H       1  LIG1        0.0239
     52 H           0.7121    6.1246  -14.9657 H       1  LIG1        0.0239
     53 H          -0.1009    8.2251  -13.6505 H       1  LIG1        0.0566
     54 H           0.7955    9.1870  -14.8154 H       1  LIG1        0.0566
     55 H           3.6406    8.9990  -13.5085 H       1  LIG1        0.0239
     56 H           3.2052    8.9052  -15.2166 H       1  LIG1        0.0239
     57 H           4.1398    7.6049  -14.4833 H       1  LIG1        0.0239
     58 H           1.2166    9.1766  -12.0100 H       1  LIG1        0.2094
     59 H           3.7768    5.8230   -7.8507 H       1  LIG1        0.1753
     60 H           4.3449    5.6502   -3.8711 H       1  LIG1        0.1049
     61 H           4.3094   -2.2096  -10.2436 H       1  LIG1        0.0278
     62 H           5.2086   -1.1500  -11.3306 H       1  LIG1        0.0278
     63 H           3.4321   -1.0400  -11.2573 H       1  LIG1        0.0278
     64 H           5.4371    2.0847   -2.8321 H       1  LIG1        0.0731
     65 H           6.8529    1.3987   -3.6690 H       1  LIG1        0.0731
     66 H           4.2844   -0.1599   -3.0632 H       1  LIG1        0.0732
     67 H           5.5693   -0.0727   -1.8706 H       1  LIG1        0.0732
@<TRIPOS>BOND
     1     1     2   ar
     2     2     3   ar
     3     2    39    1
     4     3     4   ar
     5     4    38   ar
     6     5     1   ar
     7     6     7   ar
     8     6    33    1
     9     7     8   ar
    10     8     9   ar
    11     9    10   ar
    12    10    11   ar
    13    11     6   ar
    14    12    13   ar
    15    13    14   ar
    16    14    15   ar
    17    15    16   ar
    18    16    18   ar
    19    17    18    1
    20    17    21    1
    21    17    20    1
    22    17    19    1
    23    18    12   ar
    24    20    22    1
    25    23    26    1
    26    23    25    2
    27    23    24    2
    28    23    14    1
    29    26    32    1
    30    27    28   ar
    31    27     9    1
    32    28    29   ar
    33    29    30   ar
    34    30    31   ar
    35    31    32   ar
    36    32    27   ar
    37    34    35    1
    38    34    28    1
    39    35    36    1
    40    36    37    1
    41    37    38    1
    42    38     5   ar
    43     1    40    1
    44     3    41    1
    45     7    42    1
    46     8    43    1
    47    10    44    1
    48    11    45    1
    49    12    46    1
    50    13    47    1
    51    15    48    1
    52    16    49    1
    53    19    50    1
    54    19    51    1
    55    19    52    1
    56    20    53    1
    57    20    54    1
    58    21    55    1
    59    21    56    1
    60    21    57    1
    61    22    58    1
    62    26    59    1
    63    30    60    1
    64    33    61    1
    65    33    62    1
    66    33    63    1
    67    35    64    1
    68    35    65    1
    69    36    66    1
    70    36    67    1
@<TRIPOS>MOLECULE
*****
 67 70 0 0 0
SMALL
GASTEIGER

@<TRIPOS>ATOM
      1 C           1.3969   -2.6161   -3.7847 C.ar    1  LIG1        0.0483
      2 C           2.3029   -3.4051   -3.1167 C.ar    1  LIG1        0.0543
      3 C           3.4010   -2.7491   -2.6093 C.ar    1  LIG1        0.0483
      4 N           3.6029   -1.4191   -2.7362 N.ar    1  LIG1       -0.2022
      5 N           1.5501   -1.2863   -3.9495 N.ar    1  LIG1       -0.2022
      6 C           4.6164   -0.4622   -9.1673 C.ar    1  LIG1       -0.0504
      7 C           5.7623   -0.0729   -8.4707 C.ar    1  LIG1       -0.0583
      8 C           5.7428    1.0616   -7.6520 C.ar    1  LIG1       -0.0535
      9 C           4.5796    1.8368   -7.5006 C.ar    1  LIG1       -0.0094
     10 C           3.4507    1.4614   -8.2471 C.ar    1  LIG1       -0.0535
     11 C           3.4698    0.3316   -9.0737 C.ar    1  LIG1       -0.0583
     12 C           2.9480    8.4951  -10.3480 C.ar    1  LIG1       -0.0561
     13 C           3.6211    7.6084   -9.5018 C.ar    1  LIG1       -0.0348
     14 C           4.1938    6.4507  -10.0313 C.ar    1  LIG1        0.1086
     15 C           4.1285    6.1967  -11.3977 C.ar    1  LIG1       -0.0348
     16 C           3.4575    7.0947  -12.2373 C.ar    1  LIG1       -0.0561
     17 C           2.0861    9.2543  -12.6414 C.3     1  LIG1        0.0132
     18 C           2.8367    8.2533  -11.7338 C.ar    1  LIG1       -0.0394
     19 C           2.8916   10.5700  -12.6949 C.3     1  LIG1       -0.0537
     20 C           1.8267    8.7464  -14.0939 C.3     1  LIG1        0.0533
     21 C           0.6868    9.5516  -12.0450 C.3     1  LIG1       -0.0537
     22 O           3.0049    8.6567  -14.8906 O.3     1  LIG1       -0.3942
     23 S           5.0258    5.3171   -8.9385 S.O2    1  LIG1        0.0735
     24 O           5.8486    6.1283   -8.0652 O.2     1  LIG1       -0.1499
     25 O           5.5939    4.2529   -9.7392 O.2     1  LIG1       -0.1499
     26 N           3.7005    4.6948   -8.0779 N.pl3   1  LIG1       -0.1988
     27 C           4.5188    2.9413   -6.5235 C.ar    1  LIG1        0.0847
     28 C           4.8216    2.7660   -5.1750 C.ar    1  LIG1        0.2276
     29 N           4.7458    3.7275   -4.2304 N.ar    1  LIG1       -0.2008
     30 C           4.2803    4.9086   -4.6415 C.ar    1  LIG1        0.1219
     31 N           3.8904    5.2043   -5.8829 N.ar    1  LIG1       -0.2186
     32 C           4.0517    4.2197   -6.7864 C.ar    1  LIG1        0.1524
     33 C           4.6203   -1.6908  -10.0268 C.3     1  LIG1       -0.0397
     34 O           5.1991    1.5002   -4.7723 O.3     1  LIG1       -0.4724
     35 C           5.1552    1.2383   -3.3676 C.3     1  LIG1        0.1252
     36 C           3.7398    1.2505   -2.7755 C.3     1  LIG1        0.1267
     37 O           2.7831    0.6046   -3.6149 O.3     1  LIG1       -0.4590
     38 C           2.6558   -0.7463   -3.4130 C.ar    1  LIG1        0.3180
     39 BR          2.0551   -5.2533   -2.9074 Br      1  LIG1       -0.0472
     40 H           0.4931   -3.0284   -4.2234 H       1  LIG1        0.0843
     41 H           4.1791   -3.2798   -2.0686 H       1  LIG1        0.0843
     42 H           6.6759   -0.6587   -8.5399 H       1  LIG1        0.0620
     43 H           6.6469    1.3185   -7.1026 H       1  LIG1        0.0624
     44 H           2.5256    2.0280   -8.1688 H       1  LIG1        0.0624
     45 H           2.5720    0.0632   -9.6255 H       1  LIG1        0.0620
     46 H           2.5181    9.3916   -9.9055 H       1  LIG1        0.0621
     47 H           3.6994    7.8335   -8.4400 H       1  LIG1        0.0637
     48 H           4.5983    5.3128  -11.8246 H       1  LIG1        0.0637
     49 H           3.4452    6.8635  -13.3005 H       1  LIG1        0.0621
     50 H           2.9578   11.0482  -11.7109 H       1  LIG1        0.0239
     51 H           2.4227   11.2909  -13.3745 H       1  LIG1        0.0239
     52 H           3.9185   10.4002  -13.0388 H       1  LIG1        0.0239
     53 H           1.1407    9.4186  -14.6235 H       1  LIG1        0.0566
     54 H           1.3527    7.7580  -14.0824 H       1  LIG1        0.0566
     55 H           0.1072    8.6296  -11.9192 H       1  LIG1        0.0239
     56 H           0.1131   10.2203  -12.6980 H       1  LIG1        0.0239
     57 H           0.7415   10.0450  -11.0689 H       1  LIG1        0.0239
     58 H           3.3202    9.5599  -15.0631 H       1  LIG1        0.2094
     59 H           2.9912    5.4159   -7.9667 H       1  LIG1        0.1753
     60 H           4.2048    5.6952   -3.8995 H       1  LIG1        0.1049
     61 H           5.4300   -2.3712   -9.7413 H       1  LIG1        0.0278
     62 H           4.7478   -1.4172  -11.0782 H       1  LIG1        0.0278
     63 H           3.6810   -2.2422   -9.9106 H       1  LIG1        0.0278
     64 H           5.8228    1.9161   -2.8213 H       1  LIG1        0.0731
     65 H           5.5836    0.2376   -3.2478 H       1  LIG1        0.0731
     66 H           3.3908    2.2834   -2.6781 H       1  LIG1        0.0732
     67 H           3.7349    0.8522   -1.7524 H       1  LIG1        0.0732
@<TRIPOS>BOND
     1     1     2   ar
     2     2     3   ar
     3     2    39    1
     4     3     4   ar
     5     4    38   ar
     6     5     1   ar
     7     6     7   ar
     8     6    33    1
     9     7     8   ar
    10     8     9   ar
    11     9    10   ar
    12    10    11   ar
    13    11     6   ar
    14    12    13   ar
    15    13    14   ar
    16    14    15   ar
    17    15    16   ar
    18    16    18   ar
    19    17    18    1
    20    17    21    1
    21    17    20    1
    22    17    19    1
    23    18    12   ar
    24    20    22    1
    25    23    26    1
    26    23    25    2
    27    23    24    2
    28    23    14    1
    29    26    32    1
    30    27    28   ar
    31    27     9    1
    32    28    29   ar
    33    29    30   ar
    34    30    31   ar
    35    31    32   ar
    36    32    27   ar
    37    34    35    1
    38    34    28    1
    39    35    36    1
    40    36    37    1
    41    37    38    1
    42    38     5   ar
    43     1    40    1
    44     3    41    1
    45     7    42    1
    46     8    43    1
    47    10    44    1
    48    11    45    1
    49    12    46    1
    50    13    47    1
    51    15    48    1
    52    16    49    1
    53    19    50    1
    54    19    51    1
    55    19    52    1
    56    20    53    1
    57    20    54    1
    58    21    55    1
    59    21    56    1
    60    21    57    1
    61    22    58    1
    62    26    59    1
    63    30    60    1
    64    33    61    1
    65    33    62    1
    66    33    63    1
    67    35    64    1
    68    35    65    1
    69    36    66    1
    70    36    67    1
@<TRIPOS>MOLECULE
*****
 67 70 0 0 0
SMALL
GASTEIGER

@<TRIPOS>ATOM
      1 C           9.8507    1.2746   -6.5099 C.ar    1  LIG1        0.0483
      2 C          10.6598    2.3534   -6.7727 C.ar    1  LIG1        0.0543
      3 C          10.5503    3.4009   -5.8902 C.ar    1  LIG1        0.0483
      4 N           9.7019    3.4046   -4.8397 N.ar    1  LIG1       -0.2022
      5 N           8.9922    1.2197   -5.4677 N.ar    1  LIG1       -0.2022
      6 C           5.8152    0.0562   -9.6636 C.ar    1  LIG1       -0.0504
      7 C           4.6482    0.8054   -9.8090 C.ar    1  LIG1       -0.0583
      8 C           4.2396    1.6945   -8.8030 C.ar    1  LIG1       -0.0535
      9 C           4.9916    1.8964   -7.6295 C.ar    1  LIG1       -0.0094
     10 C           6.1476    1.1087   -7.5047 C.ar    1  LIG1       -0.0535
     11 C           6.5454    0.1913   -8.4860 C.ar    1  LIG1       -0.0583
     12 C           5.4536    3.9948  -12.6324 C.ar    1  LIG1       -0.0561
     13 C           5.6676    4.2846  -11.2802 C.ar    1  LIG1       -0.0348
     14 C           4.7314    5.0434  -10.5832 C.ar    1  LIG1        0.1086
     15 C           3.5877    5.5181  -11.2246 C.ar    1  LIG1       -0.0348
     16 C           3.3778    5.2158  -12.5721 C.ar    1  LIG1       -0.0561
     17 C           4.0440    4.1411  -14.7976 C.3     1  LIG1        0.0132
     18 C           4.3091    4.4556  -13.3100 C.ar    1  LIG1       -0.0394
     19 C           5.2491    3.4841  -15.5127 C.3     1  LIG1       -0.0537
     20 C           2.8309    3.1745  -14.8862 C.3     1  LIG1        0.0533
     21 C           3.7428    5.4494  -15.5678 C.3     1  LIG1       -0.0537
     22 O           2.5246    2.7952  -16.2254 O.3     1  LIG1       -0.3942
     23 S           4.9873    5.4348   -8.8684 S.O2    1  LIG1        0.0735
     24 O           4.7010    6.8457   -8.7172 O.2     1  LIG1       -0.1499
     25 O           6.2484    4.8545   -8.4619 O.2     1  LIG1       -0.1499
     26 N           3.6920    4.5911   -8.1698 N.pl3   1  LIG1       -0.1988
     27 C           4.5950    2.8878   -6.5860 C.ar    1  LIG1        0.0847
     28 C           4.7741    2.7177   -5.2101 C.ar    1  LIG1        0.2276
     29 N           4.3561    3.5908   -4.2656 N.ar    1  LIG1       -0.2008
     30 C           3.7689    4.7053   -4.6951 C.ar    1  LIG1        0.1219
     31 N           3.5373    5.0114   -5.9675 N.ar    1  LIG1       -0.2186
     32 C           3.9703    4.1046   -6.8612 C.ar    1  LIG1        0.1524
     33 C           6.2435   -0.9180  -10.7192 C.3     1  LIG1       -0.0397
     34 O           5.3461    1.5454   -4.7580 O.3     1  LIG1       -0.4724
     35 C           5.8007    1.5271   -3.3972 C.3     1  LIG1        0.1252
     36 C           7.2951    1.2012   -3.3621 C.3     1  LIG1        0.1267
     37 O           8.0414    2.3849   -3.6515 O.3     1  LIG1       -0.4590
     38 C           8.9440    2.3083   -4.6831 C.ar    1  LIG1        0.3180
     39 BR         11.8320    2.3877   -8.2370 Br      1  LIG1       -0.0472
     40 H           9.8520    0.3951   -7.1463 H       1  LIG1        0.0843
     41 H          11.1486    4.3008   -5.9970 H       1  LIG1        0.0843
     42 H           4.0426    0.7085  -10.7075 H       1  LIG1        0.0620
     43 H           3.3089    2.2337   -8.9666 H       1  LIG1        0.0624
     44 H           6.7767    1.1967   -6.6257 H       1  LIG1        0.0624
     45 H           7.4383   -0.4060   -8.3177 H       1  LIG1        0.0620
     46 H           6.2103    3.3986  -13.1365 H       1  LIG1        0.0621
     47 H           6.5623    3.9112  -10.7858 H       1  LIG1        0.0637
     48 H           2.8596    6.1217  -10.6886 H       1  LIG1        0.0637
     49 H           2.4691    5.5894  -13.0399 H       1  LIG1        0.0621
     50 H           6.1469    4.1092  -15.4396 H       1  LIG1        0.0239
     51 H           5.0502    3.3323  -16.5801 H       1  LIG1        0.0239
     52 H           5.4826    2.5005  -15.0891 H       1  LIG1        0.0239
     53 H           1.9256    3.6132  -14.4511 H       1  LIG1        0.0566
     54 H           3.0383    2.2533  -14.3289 H       1  LIG1        0.0566
     55 H           2.8018    5.9103  -15.2486 H       1  LIG1        0.0239
     56 H           3.6587    5.2726  -16.6462 H       1  LIG1        0.0239
     57 H           4.5403    6.1868  -15.4178 H       1  LIG1        0.0239
     58 H           2.1419    3.5686  -16.6731 H       1  LIG1        0.2094
     59 H           2.9599    5.2916   -8.0361 H       1  LIG1        0.1753
     60 H           3.4516    5.4201   -3.9439 H       1  LIG1        0.1049
     61 H           5.9648   -0.5606  -11.7161 H       1  LIG1        0.0278
     62 H           5.7752   -1.8918  -10.5460 H       1  LIG1        0.0278
     63 H           7.3316   -1.0450  -10.7147 H       1  LIG1        0.0278
     64 H           5.2474    0.7252   -2.8967 H       1  LIG1        0.0731
     65 H           5.6240    2.4523   -2.8393 H       1  LIG1        0.0731
     66 H           7.5074    0.3488   -4.0147 H       1  LIG1        0.0732
     67 H           7.5682    0.9094   -2.3420 H       1  LIG1        0.0732
@<TRIPOS>BOND
     1     1     2   ar
     2     2     3   ar
     3     2    39    1
     4     3     4   ar
     5     4    38   ar
     6     5     1   ar
     7     6     7   ar
     8     6    33    1
     9     7     8   ar
    10     8     9   ar
    11     9    10   ar
    12    10    11   ar
    13    11     6   ar
    14    12    13   ar
    15    13    14   ar
    16    14    15   ar
    17    15    16   ar
    18    16    18   ar
    19    17    18    1
    20    17    21    1
    21    17    20    1
    22    17    19    1
    23    18    12   ar
    24    20    22    1
    25    23    26    1
    26    23    25    2
    27    23    24    2
    28    23    14    1
    29    26    32    1
    30    27    28   ar
    31    27     9    1
    32    28    29   ar
    33    29    30   ar
    34    30    31   ar
    35    31    32   ar
    36    32    27   ar
    37    34    35    1
    38    34    28    1
    39    35    36    1
    40    36    37    1
    41    37    38    1
    42    38     5   ar
    43     1    40    1
    44     3    41    1
    45     7    42    1
    46     8    43    1
    47    10    44    1
    48    11    45    1
    49    12    46    1
    50    13    47    1
    51    15    48    1
    52    16    49    1
    53    19    50    1
    54    19    51    1
    55    19    52    1
    56    20    53    1
    57    20    54    1
    58    21    55    1
    59    21    56    1
    60    21    57    1
    61    22    58    1
    62    26    59    1
    63    30    60    1
    64    33    61    1
    65    33    62    1
    66    33    63    1
    67    35    64    1
    68    35    65    1
    69    36    66    1
    70    36    67    1
@<TRIPOS>MOLECULE
*****
 67 70 0 0 0
SMALL
GASTEIGER

@<TRIPOS>ATOM
      1 C           9.7469    5.2232   -2.1560 C.ar    1  LIG1        0.0483
      2 C           9.8459    4.8111   -0.8487 C.ar    1  LIG1        0.0543
      3 C           9.2442    3.6082   -0.5616 C.ar    1  LIG1        0.0483
      4 N           8.5924    2.8591   -1.4799 N.ar    1  LIG1       -0.2022
      5 N           9.1164    4.5123   -3.1153 N.ar    1  LIG1       -0.2022
      6 C           5.9689    0.0066   -9.6307 C.ar    1  LIG1       -0.0504
      7 C           5.3365    1.1887   -9.9879 C.ar    1  LIG1       -0.0583
      8 C           4.8663    2.0801   -9.0054 C.ar    1  LIG1       -0.0535
      9 C           4.9863    1.8513   -7.6183 C.ar    1  LIG1       -0.0094
     10 C           5.5629    0.5986   -7.3083 C.ar    1  LIG1       -0.0535
     11 C           6.0567   -0.2944   -8.2785 C.ar    1  LIG1       -0.0583
     12 C           0.2306    6.9691   -5.9558 C.ar    1  LIG1       -0.0561
     13 C           0.9084    5.8666   -6.4892 C.ar    1  LIG1       -0.0348
     14 C           1.2206    5.8290   -7.8461 C.ar    1  LIG1        0.1086
     15 C           0.7913    6.8589   -8.6845 C.ar    1  LIG1       -0.0348
     16 C           0.0890    7.9466   -8.1481 C.ar    1  LIG1       -0.0561
     17 C          -0.9611    9.2510   -6.2028 C.3     1  LIG1        0.0132
     18 C          -0.1891    8.0374   -6.7687 C.ar    1  LIG1       -0.0394
     19 C          -0.2745   10.5635   -6.6497 C.3     1  LIG1       -0.0537
     20 C          -2.4189    9.2504   -6.7391 C.3     1  LIG1        0.0533
     21 C          -1.0104    9.2827   -4.6560 C.3     1  LIG1       -0.0537
     22 O          -3.1626    8.1261   -6.2759 O.3     1  LIG1       -0.3942
     23 S           2.0684    4.4136   -8.5264 S.O2    1  LIG1        0.0735
     24 O           1.9979    4.5451   -9.9674 O.2     1  LIG1       -0.1499
     25 O           1.5586    3.2348   -7.8594 O.2     1  LIG1       -0.1499
     26 N           3.6982    4.6668   -8.1116 N.pl3   1  LIG1       -0.1988
     27 C           4.6121    2.8901   -6.5658 C.ar    1  LIG1        0.0847
     28 C           4.8553    2.7601   -5.1825 C.ar    1  LIG1        0.2276
     29 N           4.6251    3.7154   -4.2522 N.ar    1  LIG1       -0.2008
     30 C           4.1758    4.8833   -4.6851 C.ar    1  LIG1        0.1219
     31 N           3.8920    5.1678   -5.9487 N.ar    1  LIG1       -0.2186
     32 C           4.0917    4.1704   -6.8340 C.ar    1  LIG1        0.1524
     33 C           6.5884   -0.8909  -10.6567 C.3     1  LIG1       -0.0397
     34 O           5.3285    1.5704   -4.6807 O.3     1  LIG1       -0.4724
     35 C           5.8492    1.5421   -3.3422 C.3     1  LIG1        0.1252
     36 C           7.3712    1.3984   -3.3811 C.3     1  LIG1        0.1267
     37 O           7.9804    2.6360   -3.7508 O.3     1  LIG1       -0.4590
     38 C           8.5662    3.3492   -2.7317 C.ar    1  LIG1        0.3180
     39 BR         10.7433    5.8208    0.4541 Br      1  LIG1       -0.0472
     40 H          10.1832    6.1585   -2.4942 H       1  LIG1        0.0843
     41 H           9.2676    3.1879    0.4400 H       1  LIG1        0.0843
     42 H           5.2182    1.4570  -11.0359 H       1  LIG1        0.0620
     43 H           4.4250    2.9812   -9.4088 H       1  LIG1        0.0624
     44 H           5.6865    0.2512   -6.2909 H       1  LIG1        0.0624
     45 H           6.5310   -1.2181   -7.9529 H       1  LIG1        0.0620
     46 H           0.0335    6.9591   -4.8866 H       1  LIG1        0.0621
     47 H           1.1919    5.0464   -5.8339 H       1  LIG1        0.0637
     48 H           0.9755    6.8225   -9.7569 H       1  LIG1        0.0637
     49 H          -0.2469    8.7225   -8.8344 H       1  LIG1        0.0621
     50 H           0.7799   10.5806   -6.3499 H       1  LIG1        0.0239
     51 H          -0.7621   11.4368   -6.2000 H       1  LIG1        0.0239
     52 H          -0.3135   10.7054   -7.7350 H       1  LIG1        0.0239
     53 H          -2.4579    9.2549   -7.8339 H       1  LIG1        0.0566
     54 H          -2.9498   10.1462   -6.3961 H       1  LIG1        0.0566
     55 H          -1.5297    8.4126   -4.2393 H       1  LIG1        0.0239
     56 H          -1.5444   10.1712   -4.2979 H       1  LIG1        0.0239
     57 H          -0.0025    9.3131   -4.2253 H       1  LIG1        0.0239
     58 H          -2.7190    7.3286   -6.6167 H       1  LIG1        0.2094
     59 H           3.8756    5.6708   -8.1022 H       1  LIG1        0.1753
     60 H           4.0193    5.6610   -3.9468 H       1  LIG1        0.1049
     61 H           6.3414   -0.5690  -11.6738 H       1  LIG1        0.0278
     62 H           6.2366   -1.9197  -10.5346 H       1  LIG1        0.0278
     63 H           7.6790   -0.8700  -10.5548 H       1  LIG1        0.0278
     64 H           5.4296    0.6405   -2.8818 H       1  LIG1        0.0731
     65 H           5.5496    2.3862   -2.7141 H       1  LIG1        0.0731
     66 H           7.6487    0.6767   -4.1580 H       1  LIG1        0.0732
     67 H           7.7416    0.9858   -2.4361 H       1  LIG1        0.0732
@<TRIPOS>BOND
     1     1     2   ar
     2     2     3   ar
     3     2    39    1
     4     3     4   ar
     5     4    38   ar
     6     5     1   ar
     7     6     7   ar
     8     6    33    1
     9     7     8   ar
    10     8     9   ar
    11     9    10   ar
    12    10    11   ar
    13    11     6   ar
    14    12    13   ar
    15    13    14   ar
    16    14    15   ar
    17    15    16   ar
    18    16    18   ar
    19    17    18    1
    20    17    21    1
    21    17    20    1
    22    17    19    1
    23    18    12   ar
    24    20    22    1
    25    23    26    1
    26    23    25    2
    27    23    24    2
    28    23    14    1
    29    26    32    1
    30    27    28   ar
    31    27     9    1
    32    28    29   ar
    33    29    30   ar
    34    30    31   ar
    35    31    32   ar
    36    32    27   ar
    37    34    35    1
    38    34    28    1
    39    35    36    1
    40    36    37    1
    41    37    38    1
    42    38     5   ar
    43     1    40    1
    44     3    41    1
    45     7    42    1
    46     8    43    1
    47    10    44    1
    48    11    45    1
    49    12    46    1
    50    13    47    1
    51    15    48    1
    52    16    49    1
    53    19    50    1
    54    19    51    1
    55    19    52    1
    56    20    53    1
    57    20    54    1
    58    21    55    1
    59    21    56    1
    60    21    57    1
    61    22    58    1
    62    26    59    1
    63    30    60    1
    64    33    61    1
    65    33    62    1
    66    33    63    1
    67    35    64    1
    68    35    65    1
    69    36    66    1
    70    36    67    1
@<TRIPOS>MOLECULE
*****
 67 70 0 0 0
SMALL
GASTEIGER

@<TRIPOS>ATOM
      1 C           5.8844    4.0993   -0.1001 C.ar    1  LIG1        0.0483
      2 C           6.0049    5.4665   -0.0132 C.ar    1  LIG1        0.0543
      3 C           6.6062    6.0779   -1.0877 C.ar    1  LIG1        0.0483
      4 N           7.0430    5.4097   -2.1753 N.ar    1  LIG1       -0.2022
      5 N           6.3194    3.3760   -1.1546 N.ar    1  LIG1       -0.2022
      6 C           4.4263   -0.2950   -9.5191 C.ar    1  LIG1       -0.0504
      7 C           3.8155   -0.4274   -8.2718 C.ar    1  LIG1       -0.0583
      8 C           3.8762    0.6154   -7.3408 C.ar    1  LIG1       -0.0535
      9 C           4.5493    1.8231   -7.6169 C.ar    1  LIG1       -0.0094
     10 C           5.1825    1.9222   -8.8629 C.ar    1  LIG1       -0.0535
     11 C           5.1065    0.8897   -9.8084 C.ar    1  LIG1       -0.0583
     12 C           3.9840    9.4651   -9.0190 C.ar    1  LIG1       -0.0561
     13 C           4.1649    8.1207   -9.3602 C.ar    1  LIG1       -0.0348
     14 C           4.6951    7.2355   -8.4241 C.ar    1  LIG1        0.1086
     15 C           5.0748    7.6992   -7.1664 C.ar    1  LIG1       -0.0348
     16 C           4.8617    9.0391   -6.8218 C.ar    1  LIG1       -0.0561
     17 C           4.1037   11.4474   -7.3953 C.3     1  LIG1        0.0132
     18 C           4.3045    9.9530   -7.7354 C.ar    1  LIG1       -0.0394
     19 C           5.1969   12.2621   -8.1203 C.3     1  LIG1       -0.0537
     20 C           2.6973   11.9289   -7.8619 C.3     1  LIG1        0.0533
     21 C           4.2362   11.7487   -5.8821 C.3     1  LIG1       -0.0537
     22 O           2.4518   13.3009   -7.5594 O.3     1  LIG1       -0.3942
     23 S           5.0115    5.5445   -8.8869 S.O2    1  LIG1        0.0735
     24 O           6.2610    5.1492   -8.2794 O.2     1  LIG1       -0.1499
     25 O           4.8330    5.4681  -10.3241 O.2     1  LIG1       -0.1499
     26 N           3.7106    4.6827   -8.1974 N.pl3   1  LIG1       -0.1988
     27 C           4.5043    2.9284   -6.6303 C.ar    1  LIG1        0.0847
     28 C           4.8252    2.7612   -5.2867 C.ar    1  LIG1        0.2276
     29 N           4.5665    3.6677   -4.3227 N.ar    1  LIG1       -0.2008
     30 C           4.0176    4.8147   -4.7158 C.ar    1  LIG1        0.1219
     31 N           3.7091    5.1382   -5.9723 N.ar    1  LIG1       -0.2186
     32 C           3.9876    4.1950   -6.8887 C.ar    1  LIG1        0.1524
     33 C           4.2922   -1.3736  -10.5520 C.3     1  LIG1       -0.0397
     34 O           5.4437    1.5810   -4.9136 O.3     1  LIG1       -0.4724
     35 C           5.8035    1.4689   -3.5288 C.3     1  LIG1        0.1252
     36 C           7.2141    2.0064   -3.2498 C.3     1  LIG1        0.1267
     37 O           7.3159    3.4301   -3.2927 O.3     1  LIG1       -0.4590
     38 C           6.8783    4.0760   -2.1591 C.ar    1  LIG1        0.3180
     39 BR          5.3857    6.4344    1.4703 Br      1  LIG1       -0.0472
     40 H           5.4208    3.5184    0.6923 H       1  LIG1        0.0843
     41 H           6.7616    7.1521   -1.1198 H       1  LIG1        0.0843
     42 H           3.2757   -1.3360   -8.0172 H       1  LIG1        0.0620
     43 H           3.3708    0.4769   -6.3857 H       1  LIG1        0.0624
     44 H           5.7472    2.8075   -9.1352 H       1  LIG1        0.0624
     45 H           5.5815    1.0288  -10.7776 H       1  LIG1        0.0620
     46 H           3.6082   10.1323   -9.7929 H       1  LIG1        0.0621
     47 H           3.9176    7.7895  -10.3673 H       1  LIG1        0.0637
     48 H           5.5462    7.0316   -6.4477 H       1  LIG1        0.0637
     49 H           5.1689    9.3464   -5.8258 H       1  LIG1        0.0621
     50 H           6.1992   11.9249   -7.8295 H       1  LIG1        0.0239
     51 H           5.1265   13.3297   -7.8824 H       1  LIG1        0.0239
     52 H           5.1220   12.1627   -9.2092 H       1  LIG1        0.0239
     53 H           1.9018   11.3288   -7.4028 H       1  LIG1        0.0566
     54 H           2.5822   11.8384   -8.9459 H       1  LIG1        0.0566
     55 H           3.4978   11.1853   -5.2998 H       1  LIG1        0.0239
     56 H           4.0881   12.8123   -5.6642 H       1  LIG1        0.0239
     57 H           5.2333   11.5000   -5.5013 H       1  LIG1        0.0239
     58 H           2.1769   13.3535   -6.6294 H       1  LIG1        0.2094
     59 H           2.9107    5.3093   -8.1277 H       1  LIG1        0.1753
     60 H           3.8142    5.5517   -3.9467 H       1  LIG1        0.1049
     61 H           4.2407   -2.3609  -10.0821 H       1  LIG1        0.0278
     62 H           5.1527   -1.3788  -11.2291 H       1  LIG1        0.0278
     63 H           3.3824   -1.2148  -11.1398 H       1  LIG1        0.0278
     64 H           5.8193    0.3915   -3.3249 H       1  LIG1        0.0731
     65 H           5.0346    1.8832   -2.8684 H       1  LIG1        0.0731
     66 H           7.8882    1.6369   -4.0309 H       1  LIG1        0.0732
     67 H           7.6038    1.6171   -2.3004 H       1  LIG1        0.0732
@<TRIPOS>BOND
     1     1     2   ar
     2     2     3   ar
     3     2    39    1
     4     3     4   ar
     5     4    38   ar
     6     5     1   ar
     7     6     7   ar
     8     6    33    1
     9     7     8   ar
    10     8     9   ar
    11     9    10   ar
    12    10    11   ar
    13    11     6   ar
    14    12    13   ar
    15    13    14   ar
    16    14    15   ar
    17    15    16   ar
    18    16    18   ar
    19    17    18    1
    20    17    21    1
    21    17    20    1
    22    17    19    1
    23    18    12   ar
    24    20    22    1
    25    23    26    1
    26    23    25    2
    27    23    24    2
    28    23    14    1
    29    26    32    1
    30    27    28   ar
    31    27     9    1
    32    28    29   ar
    33    29    30   ar
    34    30    31   ar
    35    31    32   ar
    36    32    27   ar
    37    34    35    1
    38    34    28    1
    39    35    36    1
    40    36    37    1
    41    37    38    1
    42    38     5   ar
    43     1    40    1
    44     3    41    1
    45     7    42    1
    46     8    43    1
    47    10    44    1
    48    11    45    1
    49    12    46    1
    50    13    47    1
    51    15    48    1
    52    16    49    1
    53    19    50    1
    54    19    51    1
    55    19    52    1
    56    20    53    1
    57    20    54    1
    58    21    55    1
    59    21    56    1
    60    21    57    1
    61    22    58    1
    62    26    59    1
    63    30    60    1
    64    33    61    1
    65    33    62    1
    66    33    63    1
    67    35    64    1
    68    35    65    1
    69    36    66    1
    70    36    67    1
@<TRIPOS>MOLECULE
*****
 67 70 0 0 0
SMALL
GASTEIGER

@<TRIPOS>ATOM
      1 C           6.6741   -2.3680   -1.9005 C.ar    1  LIG1        0.0483
      2 C           6.6072   -3.4623   -2.7314 C.ar    1  LIG1        0.0543
      3 C           6.9610   -3.2361   -4.0411 C.ar    1  LIG1        0.0483
      4 N           7.3464   -2.0312   -4.5105 N.ar    1  LIG1       -0.2022
      5 N           7.0440   -1.1374   -2.3161 N.ar    1  LIG1       -0.2022
      6 C           5.9297    0.0993   -9.6312 C.ar    1  LIG1       -0.0504
      7 C           4.7536    0.8307   -9.7990 C.ar    1  LIG1       -0.0583
      8 C           4.3271    1.7339   -8.8142 C.ar    1  LIG1       -0.0535
      9 C           5.0674    1.9609   -7.6380 C.ar    1  LIG1       -0.0094
     10 C           6.2477    1.2066   -7.4941 C.ar    1  LIG1       -0.0535
     11 C           6.6608    0.2764   -8.4575 C.ar    1  LIG1       -0.0583
     12 C           2.7004    7.0052  -11.8462 C.ar    1  LIG1       -0.0561
     13 C           3.2254    6.7454  -10.5774 C.ar    1  LIG1       -0.0348
     14 C           4.3112    5.8793  -10.4386 C.ar    1  LIG1        0.1086
     15 C           4.8819    5.2823  -11.5571 C.ar    1  LIG1       -0.0348
     16 C           4.3581    5.5606  -12.8256 C.ar    1  LIG1       -0.0561
     17 C           2.6990    6.7266  -14.4120 C.3     1  LIG1        0.0132
     18 C           3.2681    6.4401  -13.0033 C.ar    1  LIG1       -0.0394
     19 C           1.7346    5.5765  -14.7684 C.3     1  LIG1       -0.0537
     20 C           1.9023    8.0620  -14.5135 C.3     1  LIG1        0.0533
     21 C           3.8175    6.7870  -15.4804 C.3     1  LIG1       -0.0537
     22 O           2.7210    9.2095  -14.3032 O.3     1  LIG1       -0.3942
     23 S           4.9600    5.5749   -8.8107 S.O2    1  LIG1        0.0735
     24 O           4.9788    6.8524   -8.1309 O.2     1  LIG1       -0.1499
     25 O           6.1498    4.7646   -8.9358 O.2     1  LIG1       -0.1499
     26 N           3.6929    4.6481   -8.1637 N.pl3   1  LIG1       -0.1988
     27 C           4.6268    2.9356   -6.6008 C.ar    1  LIG1        0.0847
     28 C           4.7629    2.7336   -5.2250 C.ar    1  LIG1        0.2276
     29 N           4.3467    3.5938   -4.2694 N.ar    1  LIG1       -0.2008
     30 C           3.7484    4.7061   -4.6882 C.ar    1  LIG1        0.1219
     31 N           3.5184    5.0217   -5.9584 N.ar    1  LIG1       -0.2186
     32 C           3.9831    4.1424   -6.8650 C.ar    1  LIG1        0.1524
     33 C           6.3676   -0.8988  -10.6604 C.3     1  LIG1       -0.0397
     34 O           5.2633    1.5248   -4.7920 O.3     1  LIG1       -0.4724
     35 C           5.6877    1.4441   -3.4259 C.3     1  LIG1        0.1252
     36 C           7.2136    1.3071   -3.3757 C.3     1  LIG1        0.1267
     37 O           7.7024    0.1978   -4.1360 O.3     1  LIG1       -0.4590
     38 C           7.3537   -1.0279   -3.6210 C.ar    1  LIG1        0.3180
     39 BR          6.0640   -5.1505   -2.1186 Br      1  LIG1       -0.0472
     40 H           6.4214   -2.4379   -0.8465 H       1  LIG1        0.0843
     41 H           6.9442   -4.0293   -4.7825 H       1  LIG1        0.0843
     42 H           4.1539    0.7047  -10.6975 H       1  LIG1        0.0620
     43 H           3.3920    2.2594   -8.9918 H       1  LIG1        0.0624
     44 H           6.8812    1.3234   -6.6173 H       1  LIG1        0.0624
     45 H           7.5654   -0.3008   -8.2763 H       1  LIG1        0.0620
     46 H           1.8384    7.6653  -11.8975 H       1  LIG1        0.0621
     47 H           2.7818    7.2249   -9.7076 H       1  LIG1        0.0637
     48 H           5.7279    4.6049  -11.4581 H       1  LIG1        0.0637
     49 H           4.8224    5.0669  -13.6765 H       1  LIG1        0.0621
     50 H           2.2434    4.6055  -14.7613 H       1  LIG1        0.0239
     51 H           1.3047    5.7151  -15.7672 H       1  LIG1        0.0239
     52 H           0.9044    5.5170  -14.0545 H       1  LIG1        0.0239
     53 H           1.0590    8.1032  -13.8168 H       1  LIG1        0.0566
     54 H           1.4696    8.1676  -15.5157 H       1  LIG1        0.0566
     55 H           4.6070    7.4918  -15.1952 H       1  LIG1        0.0239
     56 H           3.4178    7.1083  -16.4498 H       1  LIG1        0.0239
     57 H           4.2850    5.8110  -15.6483 H       1  LIG1        0.0239
     58 H           3.2631    9.0533  -13.5102 H       1  LIG1        0.2094
     59 H           2.9211    5.2974   -8.0068 H       1  LIG1        0.1753
     60 H           3.4152    5.4071   -3.9318 H       1  LIG1        0.1049
     61 H           6.0859   -0.5705  -11.6665 H       1  LIG1        0.0278
     62 H           5.9058   -1.8710  -10.4623 H       1  LIG1        0.0278
     63 H           7.4564   -1.0177  -10.6524 H       1  LIG1        0.0278
     64 H           5.1965    0.5609   -3.0070 H       1  LIG1        0.0731
     65 H           5.3886    2.2889   -2.7975 H       1  LIG1        0.0731
     66 H           7.5850    1.2736   -2.3441 H       1  LIG1        0.0732
     67 H           7.6571    2.1980   -3.8358 H       1  LIG1        0.0732
@<TRIPOS>BOND
     1     1     2   ar
     2     2     3   ar
     3     2    39    1
     4     3     4   ar
     5     4    38   ar
     6     5     1   ar
     7     6     7   ar
     8     6    33    1
     9     7     8   ar
    10     8     9   ar
    11     9    10   ar
    12    10    11   ar
    13    11     6   ar
    14    12    13   ar
    15    13    14   ar
    16    14    15   ar
    17    15    16   ar
    18    16    18   ar
    19    17    18    1
    20    17    21    1
    21    17    20    1
    22    17    19    1
    23    18    12   ar
    24    20    22    1
    25    23    26    1
    26    23    25    2
    27    23    24    2
    28    23    14    1
    29    26    32    1
    30    27    28   ar
    31    27     9    1
    32    28    29   ar
    33    29    30   ar
    34    30    31   ar
    35    31    32   ar
    36    32    27   ar
    37    34    35    1
    38    34    28    1
    39    35    36    1
    40    36    37    1
    41    37    38    1
    42    38     5   ar
    43     1    40    1
    44     3    41    1
    45     7    42    1
    46     8    43    1
    47    10    44    1
    48    11    45    1
    49    12    46    1
    50    13    47    1
    51    15    48    1
    52    16    49    1
    53    19    50    1
    54    19    51    1
    55    19    52    1
    56    20    53    1
    57    20    54    1
    58    21    55    1
    59    21    56    1
    60    21    57    1
    61    22    58    1
    62    26    59    1
    63    30    60    1
    64    33    61    1
    65    33    62    1
    66    33    63    1
    67    35    64    1
    68    35    65    1
    69    36    66    1
    70    36    67    1
@<TRIPOS>MOLECULE
*****
 67 70 0 0 0
SMALL
GASTEIGER

@<TRIPOS>ATOM
      1 C           3.8295   -1.1648    1.3859 C.ar    1  LIG1        0.0483
      2 C           3.0767   -2.2047    0.8911 C.ar    1  LIG1        0.0543
      3 C           3.2220   -2.4567   -0.4533 C.ar    1  LIG1        0.0483
      4 N           4.0332   -1.7417   -1.2611 N.ar    1  LIG1       -0.2022
      5 N           4.6575   -0.4162    0.6264 N.ar    1  LIG1       -0.2022
      6 C           4.3667   -0.3707   -9.3401 C.ar    1  LIG1       -0.0504
      7 C           5.3847   -0.2687   -8.3924 C.ar    1  LIG1       -0.0583
      8 C           5.4337    0.8230   -7.5140 C.ar    1  LIG1       -0.0535
      9 C           4.4574    1.8383   -7.5297 C.ar    1  LIG1       -0.0094
     10 C           3.4639    1.7310   -8.5201 C.ar    1  LIG1       -0.0535
     11 C           3.4272    0.6573   -9.4206 C.ar    1  LIG1       -0.0583
     12 C           8.4313    4.4859   -6.7205 C.ar    1  LIG1       -0.0561
     13 C           7.4220    4.3893   -7.6809 C.ar    1  LIG1       -0.0348
     14 C           6.4948    5.4203   -7.8060 C.ar    1  LIG1        0.1086
     15 C           6.6034    6.5702   -7.0251 C.ar    1  LIG1       -0.0348
     16 C           7.6162    6.6567   -6.0639 C.ar    1  LIG1       -0.0561
     17 C           9.6516    5.6616   -4.8073 C.3     1  LIG1        0.0132
     18 C           8.5411    5.6124   -5.8788 C.ar    1  LIG1       -0.0394
     19 C           9.4774    4.4588   -3.8502 C.3     1  LIG1       -0.0537
     20 C          11.0505    5.5683   -5.4774 C.3     1  LIG1        0.0533
     21 C           9.6190    6.9387   -3.9357 C.3     1  LIG1       -0.0537
     22 O          11.3284    6.7004   -6.2981 O.3     1  LIG1       -0.3942
     23 S           5.1518    5.2525   -8.9621 S.O2    1  LIG1        0.0735
     24 O           5.4781    4.1633   -9.8551 O.2     1  LIG1       -0.1499
     25 O           4.8601    6.5719   -9.4861 O.2     1  LIG1       -0.1499
     26 N           3.7934    4.8033   -8.0580 N.pl3   1  LIG1       -0.1988
     27 C           4.4336    2.9336   -6.5225 C.ar    1  LIG1        0.0847
     28 C           4.7474    2.7548   -5.1722 C.ar    1  LIG1        0.2276
     29 N           4.6516    3.7110   -4.2242 N.ar    1  LIG1       -0.2008
     30 C           4.2134    4.9024   -4.6177 C.ar    1  LIG1        0.1219
     31 N           3.8902    5.2254   -5.8661 N.ar    1  LIG1       -0.2186
     32 C           4.0301    4.2431   -6.7762 C.ar    1  LIG1        0.1524
     33 C           4.3137   -1.5318  -10.2875 C.3     1  LIG1       -0.0397
     34 O           5.1146    1.4938   -4.7489 O.3     1  LIG1       -0.4724
     35 C           5.6544    1.3882   -3.4294 C.3     1  LIG1        0.1252
     36 C           5.0952    0.1215   -2.7936 C.3     1  LIG1        0.1267
     37 O           5.5332    0.0571   -1.4380 O.3     1  LIG1       -0.4590
     38 C           4.7072   -0.7360   -0.6751 C.ar    1  LIG1        0.3180
     39 BR          1.9228   -3.2105    1.9762 Br      1  LIG1       -0.0472
     40 H           3.7928   -0.8829    2.4341 H       1  LIG1        0.0843
     41 H           2.6773   -3.2567   -0.9459 H       1  LIG1        0.0843
     42 H           6.1446   -1.0438   -8.3192 H       1  LIG1        0.0620
     43 H           6.2515    0.8485   -6.7970 H       1  LIG1        0.0624
     44 H           2.6828    2.4831   -8.6093 H       1  LIG1        0.0624
     45 H           2.6462    0.6288  -10.1774 H       1  LIG1        0.0620
     46 H           9.1274    3.6541   -6.6321 H       1  LIG1        0.0621
     47 H           7.3597    3.5007   -8.3049 H       1  LIG1        0.0637
     48 H           5.8907    7.3845   -7.1338 H       1  LIG1        0.0637
     49 H           7.6528    7.5597   -5.4586 H       1  LIG1        0.0621
     50 H           8.4837    4.4634   -3.3861 H       1  LIG1        0.0239
     51 H          10.2213    4.4834   -3.0453 H       1  LIG1        0.0239
     52 H           9.5951    3.4984   -4.3640 H       1  LIG1        0.0239
     53 H          11.1606    4.6696   -6.0936 H       1  LIG1        0.0566
     54 H          11.8357    5.5263   -4.7139 H       1  LIG1        0.0566
     55 H           9.7438    7.8488   -4.5330 H       1  LIG1        0.0239
     56 H          10.4271    6.9270   -3.1943 H       1  LIG1        0.0239
     57 H           8.6757    7.0240   -3.3834 H       1  LIG1        0.0239
     58 H          10.6398    6.7333   -6.9864 H       1  LIG1        0.2094
     59 H           3.2088    5.6322   -7.9580 H       1  LIG1        0.1753
     60 H           4.1179    5.6725   -3.8607 H       1  LIG1        0.1049
     61 H           4.7041   -2.4393   -9.8143 H       1  LIG1        0.0278
     62 H           4.9037   -1.3169  -11.1833 H       1  LIG1        0.0278
     63 H           3.2813   -1.7448  -10.5860 H       1  LIG1        0.0278
     64 H           5.4345    2.2309   -2.7651 H       1  LIG1        0.0731
     65 H           6.7465    1.3228   -3.5038 H       1  LIG1        0.0731
     66 H           5.4491   -0.7591   -3.3441 H       1  LIG1        0.0732
     67 H           3.9998    0.1608   -2.8708 H       1  LIG1        0.0732
@<TRIPOS>BOND
     1     1     2   ar
     2     2     3   ar
     3     2    39    1
     4     3     4   ar
     5     4    38   ar
     6     5     1   ar
     7     6     7   ar
     8     6    33    1
     9     7     8   ar
    10     8     9   ar
    11     9    10   ar
    12    10    11   ar
    13    11     6   ar
    14    12    13   ar
    15    13    14   ar
    16    14    15   ar
    17    15    16   ar
    18    16    18   ar
    19    17    18    1
    20    17    21    1
    21    17    20    1
    22    17    19    1
    23    18    12   ar
    24    20    22    1
    25    23    26    1
    26    23    25    2
    27    23    24    2
    28    23    14    1
    29    26    32    1
    30    27    28   ar
    31    27     9    1
    32    28    29   ar
    33    29    30   ar
    34    30    31   ar
    35    31    32   ar
    36    32    27   ar
    37    34    35    1
    38    34    28    1
    39    35    36    1
    40    36    37    1
    41    37    38    1
    42    38     5   ar
    43     1    40    1
    44     3    41    1
    45     7    42    1
    46     8    43    1
    47    10    44    1
    48    11    45    1
    49    12    46    1
    50    13    47    1
    51    15    48    1
    52    16    49    1
    53    19    50    1
    54    19    51    1
    55    19    52    1
    56    20    53    1
    57    20    54    1
    58    21    55    1
    59    21    56    1
    60    21    57    1
    61    22    58    1
    62    26    59    1
    63    30    60    1
    64    33    61    1
    65    33    62    1
    66    33    63    1
    67    35    64    1
    68    35    65    1
    69    36    66    1
    70    36    67    1
@<TRIPOS>MOLECULE
*****
 67 70 0 0 0
SMALL
GASTEIGER

@<TRIPOS>ATOM
      1 C           3.5922   -3.1774   -1.7515 C.ar    1  LIG1        0.0483
      2 C           4.8585   -3.4016   -1.2670 C.ar    1  LIG1        0.0543
      3 C           5.6932   -2.3080   -1.2591 C.ar    1  LIG1        0.0483
      4 N           5.3231   -1.0802   -1.6869 N.ar    1  LIG1       -0.2022
      5 N           3.1708   -1.9761   -2.1985 N.ar    1  LIG1       -0.2022
      6 C           4.7234   -0.7324   -9.0450 C.ar    1  LIG1       -0.0504
      7 C           5.8407   -0.1856   -8.4105 C.ar    1  LIG1       -0.0583
      8 C           5.7214    0.9838   -7.6505 C.ar    1  LIG1       -0.0535
      9 C           4.4843    1.6367   -7.4943 C.ar    1  LIG1       -0.0094
     10 C           3.3772    1.0815   -8.1504 C.ar    1  LIG1       -0.0535
     11 C           3.4966   -0.0746   -8.9303 C.ar    1  LIG1       -0.0583
     12 C           0.2197    7.9043   -7.8273 C.ar    1  LIG1       -0.0561
     13 C           0.6952    6.5900   -7.7406 C.ar    1  LIG1       -0.0348
     14 C           1.5952    6.1214   -8.6948 C.ar    1  LIG1        0.1086
     15 C           2.0361    6.9632   -9.7157 C.ar    1  LIG1       -0.0348
     16 C           1.5591    8.2767   -9.7901 C.ar    1  LIG1       -0.0561
     17 C           0.0124   10.1884   -8.9849 C.3     1  LIG1        0.0132
     18 C           0.6163    8.7692   -8.8701 C.ar    1  LIG1       -0.0394
     19 C           0.5470   11.0491   -7.8223 C.3     1  LIG1       -0.0537
     20 C           0.3025   10.9059  -10.3409 C.3     1  LIG1        0.0533
     21 C          -1.5326   10.1112   -8.8788 C.3     1  LIG1       -0.0537
     22 O           1.6612   11.3103  -10.4938 O.3     1  LIG1       -0.3942
     23 S           2.0585    4.4017   -8.7312 S.O2    1  LIG1        0.0735
     24 O           1.9352    3.9907  -10.1124 O.2     1  LIG1       -0.1499
     25 O           1.3205    3.7249   -7.6841 O.2     1  LIG1       -0.1499
     26 N           3.7150    4.4312   -8.3632 N.pl3   1  LIG1       -0.1988
     27 C           4.3617    2.8114   -6.6088 C.ar    1  LIG1        0.0847
     28 C           4.6687    2.7512   -5.2525 C.ar    1  LIG1        0.2276
     29 N           4.6334    3.8022   -4.4058 N.ar    1  LIG1       -0.2008
     30 C           4.2779    4.9719   -4.9464 C.ar    1  LIG1        0.1219
     31 N           3.9780    5.1875   -6.2311 N.ar    1  LIG1       -0.2186
     32 C           4.0216    4.0965   -7.0159 C.ar    1  LIG1        0.1524
     33 C           4.8366   -1.9844   -9.8620 C.3     1  LIG1       -0.0397
     34 O           5.0322    1.5163   -4.7497 O.3     1  LIG1       -0.4724
     35 C           5.5563    1.4943   -3.4204 C.3     1  LIG1        0.1252
     36 C           4.4467    1.3499   -2.3772 C.3     1  LIG1        0.1267
     37 O           3.6020    0.2250   -2.6306 O.3     1  LIG1       -0.4590
     38 C           4.0632   -0.9752   -2.1465 C.ar    1  LIG1        0.3180
     39 BR          5.4114   -5.0881   -0.6569 Br      1  LIG1       -0.0472
     40 H           2.8500   -3.9687   -1.8026 H       1  LIG1        0.0843
     41 H           6.7162   -2.3781   -0.9013 H       1  LIG1        0.0843
     42 H           6.8096   -0.6736   -8.4854 H       1  LIG1        0.0620
     43 H           6.6079    1.3656   -7.1477 H       1  LIG1        0.0624
     44 H           2.3884    1.5174   -8.0414 H       1  LIG1        0.0624
     45 H           2.6123   -0.4683   -9.4271 H       1  LIG1        0.0620
     46 H          -0.4934    8.2340   -7.0741 H       1  LIG1        0.0621
     47 H           0.3272    5.9379   -6.9510 H       1  LIG1        0.0637
     48 H           2.7171    6.6000  -10.4824 H       1  LIG1        0.0637
     49 H           1.9273    8.8940  -10.6067 H       1  LIG1        0.0621
     50 H           0.2309   10.6583   -6.8484 H       1  LIG1        0.0239
     51 H           0.1788   12.0791   -7.8949 H       1  LIG1        0.0239
     52 H           1.6425   11.0821   -7.8160 H       1  LIG1        0.0239
     53 H          -0.3077   11.8118  -10.4414 H       1  LIG1        0.0566
     54 H           0.0457   10.2591  -11.1882 H       1  LIG1        0.0566
     55 H          -1.9479    9.4405   -9.6403 H       1  LIG1        0.0239
     56 H          -1.9884   11.0987   -9.0201 H       1  LIG1        0.0239
     57 H          -1.8699    9.7533   -7.9005 H       1  LIG1        0.0239
     58 H           1.8142   12.0638   -9.8988 H       1  LIG1        0.2094
     59 H           4.0725    5.3714   -8.5232 H       1  LIG1        0.1753
     60 H           4.2364    5.8275   -4.2807 H       1  LIG1        0.1049
     61 H           5.6985   -2.5831   -9.5488 H       1  LIG1        0.0278
     62 H           4.9479   -1.7346  -10.9212 H       1  LIG1        0.0278
     63 H           3.9462   -2.6094   -9.7336 H       1  LIG1        0.0278
     64 H           6.1927    2.3637   -3.2135 H       1  LIG1        0.0731
     65 H           6.2198    0.6245   -3.3847 H       1  LIG1        0.0731
     66 H           3.7895    2.2246   -2.4230 H       1  LIG1        0.0732
     67 H           4.8552    1.3304   -1.3588 H       1  LIG1        0.0732
@<TRIPOS>BOND
     1     1     2   ar
     2     2     3   ar
     3     2    39    1
     4     3     4   ar
     5     4    38   ar
     6     5     1   ar
     7     6     7   ar
     8     6    33    1
     9     7     8   ar
    10     8     9   ar
    11     9    10   ar
    12    10    11   ar
    13    11     6   ar
    14    12    13   ar
    15    13    14   ar
    16    14    15   ar
    17    15    16   ar
    18    16    18   ar
    19    17    18    1
    20    17    21    1
    21    17    20    1
    22    17    19    1
    23    18    12   ar
    24    20    22    1
    25    23    26    1
    26    23    25    2
    27    23    24    2
    28    23    14    1
    29    26    32    1
    30    27    28   ar
    31    27     9    1
    32    28    29   ar
    33    29    30   ar
    34    30    31   ar
    35    31    32   ar
    36    32    27   ar
    37    34    35    1
    38    34    28    1
    39    35    36    1
    40    36    37    1
    41    37    38    1
    42    38     5   ar
    43     1    40    1
    44     3    41    1
    45     7    42    1
    46     8    43    1
    47    10    44    1
    48    11    45    1
    49    12    46    1
    50    13    47    1
    51    15    48    1
    52    16    49    1
    53    19    50    1
    54    19    51    1
    55    19    52    1
    56    20    53    1
    57    20    54    1
    58    21    55    1
    59    21    56    1
    60    21    57    1
    61    22    58    1
    62    26    59    1
    63    30    60    1
    64    33    61    1
    65    33    62    1
    66    33    63    1
    67    35    64    1
    68    35    65    1
    69    36    66    1
    70    36    67    1
@<TRIPOS>MOLECULE
*****
 67 70 0 0 0
SMALL
GASTEIGER

@<TRIPOS>ATOM
      1 C          10.0234   -1.3698   -2.2389 C.ar    1  LIG1        0.0483
      2 C           9.9492   -0.7081   -1.0358 C.ar    1  LIG1        0.0543
      3 C           8.7674   -0.0469   -0.7941 C.ar    1  LIG1        0.0483
      4 N           7.7283   -0.0356   -1.6571 N.ar    1  LIG1       -0.2022
      5 N           9.0188   -1.3897   -3.1403 N.ar    1  LIG1       -0.2022
      6 C           4.6712   -0.4762   -9.2481 C.ar    1  LIG1       -0.0504
      7 C           5.7710   -0.1324   -8.4606 C.ar    1  LIG1       -0.0583
      8 C           5.7103    0.9730   -7.6061 C.ar    1  LIG1       -0.0535
      9 C           4.5488    1.7611   -7.5047 C.ar    1  LIG1       -0.0094
     10 C           3.4760    1.4416   -8.3520 C.ar    1  LIG1       -0.0535
     11 C           3.5370    0.3403   -9.2144 C.ar    1  LIG1       -0.0583
     12 C           8.4747    4.4914   -6.8999 C.ar    1  LIG1       -0.0561
     13 C           7.4256    4.4198   -7.8201 C.ar    1  LIG1       -0.0348
     14 C           6.3840    5.3417   -7.7547 C.ar    1  LIG1        0.1086
     15 C           6.4206    6.3777   -6.8234 C.ar    1  LIG1       -0.0348
     16 C           7.4693    6.4341   -5.8989 C.ar    1  LIG1       -0.0561
     17 C           9.6281    5.5410   -4.8363 C.3     1  LIG1        0.0132
     18 C           8.5063    5.4785   -5.8974 C.ar    1  LIG1       -0.0394
     19 C          10.5239    6.7598   -5.1380 C.3     1  LIG1       -0.0537
     20 C           9.0359    5.6195   -3.3937 C.3     1  LIG1        0.0533
     21 C          10.5339    4.2834   -4.8537 C.3     1  LIG1       -0.0537
     22 O           8.5495    6.9108   -3.0336 O.3     1  LIG1       -0.3942
     23 S           5.0032    5.1844   -8.8611 S.O2    1  LIG1        0.0735
     24 O           5.3052    4.1284   -9.8043 O.2     1  LIG1       -0.1499
     25 O           4.6751    6.5147   -9.3303 O.2     1  LIG1       -0.1499
     26 N           3.6847    4.6895   -7.9257 N.pl3   1  LIG1       -0.1988
     27 C           4.4191    2.8028   -6.4668 C.ar    1  LIG1        0.0847
     28 C           4.6689    2.5430   -5.1186 C.ar    1  LIG1        0.2276
     29 N           4.5040    3.4272   -4.1123 N.ar    1  LIG1       -0.2008
     30 C           4.0467    4.6279   -4.4630 C.ar    1  LIG1        0.1219
     31 N           3.7471    5.0124   -5.7051 N.ar    1  LIG1       -0.2186
     32 C           3.9568    4.0944   -6.6682 C.ar    1  LIG1        0.1524
     33 C           4.7037   -1.6908  -10.1268 C.3     1  LIG1       -0.0397
     34 O           5.0772    1.2647   -4.7869 O.3     1  LIG1       -0.4724
     35 C           5.2805    1.0332   -3.3896 C.3     1  LIG1        0.1252
     36 C           5.6046   -0.4499   -3.2097 C.3     1  LIG1        0.1267
     37 O           6.8976   -0.7680   -3.7337 O.3     1  LIG1       -0.4590
     38 C           7.9036   -0.7273   -2.7975 C.ar    1  LIG1        0.3180
     39 BR         11.3654   -0.7067    0.1951 Br      1  LIG1       -0.0472
     40 H          10.9104   -1.9235   -2.5324 H       1  LIG1        0.0843
     41 H           8.6050    0.5101    0.1241 H       1  LIG1        0.0843
     42 H           6.6742   -0.7383   -8.4779 H       1  LIG1        0.0620
     43 H           6.5743    1.1828   -6.9773 H       1  LIG1        0.0624
     44 H           2.5587    2.0262   -8.3267 H       1  LIG1        0.0624
     45 H           2.6784    0.1093   -9.8409 H       1  LIG1        0.0620
     46 H           9.2577    3.7433   -6.9894 H       1  LIG1        0.0621
     47 H           7.4258    3.6318   -8.5710 H       1  LIG1        0.0637
     48 H           5.6252    7.1185   -6.7804 H       1  LIG1        0.0637
     49 H           7.4553    7.2368   -5.1639 H       1  LIG1        0.0621
     50 H          10.9931    6.6690   -6.1251 H       1  LIG1        0.0239
     51 H          11.3256    6.8507   -4.3960 H       1  LIG1        0.0239
     52 H           9.9627    7.7006   -5.1363 H       1  LIG1        0.0239
     53 H           9.7931    5.3562   -2.6455 H       1  LIG1        0.0566
     54 H           8.2103    4.9078   -3.2762 H       1  LIG1        0.0566
     55 H           9.9530    3.3685   -4.6864 H       1  LIG1        0.0239
     56 H          11.2970    4.3347   -4.0678 H       1  LIG1        0.0239
     57 H          11.0721    4.1799   -5.8029 H       1  LIG1        0.0239
     58 H           9.3211    7.4878   -2.9005 H       1  LIG1        0.2094
     59 H           3.0843    5.5024   -7.7902 H       1  LIG1        0.1753
     60 H           3.9052    5.3552   -3.6710 H       1  LIG1        0.1049
     61 H           5.5288   -2.3575   -9.8536 H       1  LIG1        0.0278
     62 H           4.8238   -1.3999  -11.1742 H       1  LIG1        0.0278
     63 H           3.7766   -2.2639  -10.0155 H       1  LIG1        0.0278
     64 H           4.3597    1.2558   -2.8379 H       1  LIG1        0.0731
     65 H           6.1039    1.6609   -3.0314 H       1  LIG1        0.0731
     66 H           4.8910   -1.0451   -3.7919 H       1  LIG1        0.0732
     67 H           5.4898   -0.7651   -2.1653 H       1  LIG1        0.0732
@<TRIPOS>BOND
     1     1     2   ar
     2     2     3   ar
     3     2    39    1
     4     3     4   ar
     5     4    38   ar
     6     5     1   ar
     7     6     7   ar
     8     6    33    1
     9     7     8   ar
    10     8     9   ar
    11     9    10   ar
    12    10    11   ar
    13    11     6   ar
    14    12    13   ar
    15    13    14   ar
    16    14    15   ar
    17    15    16   ar
    18    16    18   ar
    19    17    18    1
    20    17    21    1
    21    17    20    1
    22    17    19    1
    23    18    12   ar
    24    20    22    1
    25    23    26    1
    26    23    25    2
    27    23    24    2
    28    23    14    1
    29    26    32    1
    30    27    28   ar
    31    27     9    1
    32    28    29   ar
    33    29    30   ar
    34    30    31   ar
    35    31    32   ar
    36    32    27   ar
    37    34    35    1
    38    34    28    1
    39    35    36    1
    40    36    37    1
    41    37    38    1
    42    38     5   ar
    43     1    40    1
    44     3    41    1
    45     7    42    1
    46     8    43    1
    47    10    44    1
    48    11    45    1
    49    12    46    1
    50    13    47    1
    51    15    48    1
    52    16    49    1
    53    19    50    1
    54    19    51    1
    55    19    52    1
    56    20    53    1
    57    20    54    1
    58    21    55    1
    59    21    56    1
    60    21    57    1
    61    22    58    1
    62    26    59    1
    63    30    60    1
    64    33    61    1
    65    33    62    1
    66    33    63    1
    67    35    64    1
    68    35    65    1
    69    36    66    1
    70    36    67    1
@<TRIPOS>MOLECULE
*****
 67 70 0 0 0
SMALL
GASTEIGER

@<TRIPOS>ATOM
      1 C           5.1579   -3.0864   -2.4538 C.ar    1  LIG1        0.0483
      2 C           4.5024   -4.1854   -2.9600 C.ar    1  LIG1        0.0543
      3 C           3.4969   -3.9144   -3.8569 C.ar    1  LIG1        0.0483
      4 N           3.1553   -2.6651   -4.2336 N.ar    1  LIG1       -0.2022
      5 N           4.8514   -1.8123   -2.7854 N.ar    1  LIG1       -0.2022
      6 C           4.7334   -0.7910   -9.0531 C.ar    1  LIG1       -0.0504
      7 C           5.8254   -0.3553   -8.3030 C.ar    1  LIG1       -0.0583
      8 C           5.7627    0.8514   -7.5917 C.ar    1  LIG1       -0.0535
      9 C           4.5978    1.6435   -7.5725 C.ar    1  LIG1       -0.0094
     10 C           3.5323    1.2032   -8.3720 C.ar    1  LIG1       -0.0535
     11 C           3.6027    0.0216   -9.1178 C.ar    1  LIG1       -0.0583
     12 C           1.6121    8.3836   -9.6123 C.ar    1  LIG1       -0.0561
     13 C           2.1144    7.0779   -9.5551 C.ar    1  LIG1       -0.0348
     14 C           1.5663    6.1661   -8.6535 C.ar    1  LIG1        0.1086
     15 C           0.5215    6.5525   -7.8172 C.ar    1  LIG1       -0.0348
     16 C           0.0219    7.8590   -7.8871 C.ar    1  LIG1       -0.0561
     17 C          -0.0489   10.2253   -8.9239 C.3     1  LIG1        0.0132
     18 C           0.5526    8.8069   -8.7823 C.ar    1  LIG1       -0.0394
     19 C          -0.9728   10.2294  -10.1606 C.3     1  LIG1       -0.0537
     20 C          -0.8409   10.7098   -7.6682 C.3     1  LIG1        0.0533
     21 C           1.0681   11.2771   -9.1444 C.3     1  LIG1       -0.0537
     22 O          -2.1060   10.0749   -7.4972 O.3     1  LIG1       -0.3942
     23 S           2.0592    4.4577   -8.7326 S.O2    1  LIG1        0.0735
     24 O           1.9750    4.0950  -10.1358 O.2     1  LIG1       -0.1499
     25 O           1.3040    3.7293   -7.7351 O.2     1  LIG1       -0.1499
     26 N           3.7069    4.4729   -8.3230 N.pl3   1  LIG1       -0.1988
     27 C           4.4526    2.7996   -6.6507 C.ar    1  LIG1        0.0847
     28 C           4.7614    2.7076   -5.2926 C.ar    1  LIG1        0.2276
     29 N           4.6046    3.6977   -4.3882 N.ar    1  LIG1       -0.2008
     30 C           4.1304    4.8502   -4.8670 C.ar    1  LIG1        0.1219
     31 N           3.8387    5.1082   -6.1448 N.ar    1  LIG1       -0.2186
     32 C           3.9934    4.0708   -6.9883 C.ar    1  LIG1        0.1524
     33 C           4.7482   -2.1072   -9.7693 C.3     1  LIG1       -0.0397
     34 O           5.3640    1.5445   -4.8574 O.3     1  LIG1       -0.4724
     35 C           5.2151    1.2217   -3.4749 C.3     1  LIG1        0.1252
     36 C           3.8285    0.6454   -3.1857 C.3     1  LIG1        0.1267
     37 O           3.4841   -0.4081   -4.0882 O.3     1  LIG1       -0.4590
     38 C           3.8500   -1.6639   -3.6711 C.ar    1  LIG1        0.3180
     39 BR          4.9462   -5.9376   -2.4551 Br      1  LIG1       -0.0472
     40 H           5.9737   -3.1907   -1.7441 H       1  LIG1        0.0843
     41 H           2.9123   -4.7050   -4.3180 H       1  LIG1        0.0843
     42 H           6.7226   -0.9660   -8.2309 H       1  LIG1        0.0620
     43 H           6.6284    1.1321   -6.9936 H       1  LIG1        0.0624
     44 H           2.5875    1.7336   -8.3892 H       1  LIG1        0.0624
     45 H           2.7406   -0.2788   -9.7097 H       1  LIG1        0.0620
     46 H           2.0404    9.0525  -10.3549 H       1  LIG1        0.0621
     47 H           2.8912    6.7730  -10.2529 H       1  LIG1        0.0637
     48 H           0.0505    5.8389   -7.1438 H       1  LIG1        0.0637
     49 H          -0.8230    8.1000   -7.2459 H       1  LIG1        0.0621
     50 H          -0.4163   10.0174  -11.0812 H       1  LIG1        0.0239
     51 H          -1.4566   11.2048  -10.2873 H       1  LIG1        0.0239
     52 H          -1.7602    9.4707  -10.0818 H       1  LIG1        0.0239
     53 H          -1.0431   11.7860   -7.7271 H       1  LIG1        0.0566
     54 H          -0.2568   10.5455   -6.7555 H       1  LIG1        0.0566
     55 H           1.8163   11.2338   -8.3448 H       1  LIG1        0.0239
     56 H           0.6561   12.2934   -9.1625 H       1  LIG1        0.0239
     57 H           1.5870   11.1445  -10.0995 H       1  LIG1        0.0239
     58 H          -2.6927   10.3776   -8.2110 H       1  LIG1        0.2094
     59 H           4.0608    5.4225   -8.4210 H       1  LIG1        0.1753
     60 H           3.9808    5.6543   -4.1541 H       1  LIG1        0.1049
     61 H           5.5883   -2.7301   -9.4444 H       1  LIG1        0.0278
     62 H           4.8252   -1.9524  -10.8491 H       1  LIG1        0.0278
     63 H           3.8296   -2.6637   -9.5514 H       1  LIG1        0.0278
     64 H           5.4448    2.0712   -2.8215 H       1  LIG1        0.0731
     65 H           5.9813    0.4677   -3.2678 H       1  LIG1        0.0731
     66 H           3.0773    1.4264   -3.3466 H       1  LIG1        0.0732
     67 H           3.7319    0.3393   -2.1367 H       1  LIG1        0.0732
@<TRIPOS>BOND
     1     1     2   ar
     2     2     3   ar
     3     2    39    1
     4     3     4   ar
     5     4    38   ar
     6     5     1   ar
     7     6     7   ar
     8     6    33    1
     9     7     8   ar
    10     8     9   ar
    11     9    10   ar
    12    10    11   ar
    13    11     6   ar
    14    12    13   ar
    15    13    14   ar
    16    14    15   ar
    17    15    16   ar
    18    16    18   ar
    19    17    18    1
    20    17    21    1
    21    17    20    1
    22    17    19    1
    23    18    12   ar
    24    20    22    1
    25    23    26    1
    26    23    25    2
    27    23    24    2
    28    23    14    1
    29    26    32    1
    30    27    28   ar
    31    27     9    1
    32    28    29   ar
    33    29    30   ar
    34    30    31   ar
    35    31    32   ar
    36    32    27   ar
    37    34    35    1
    38    34    28    1
    39    35    36    1
    40    36    37    1
    41    37    38    1
    42    38     5   ar
    43     1    40    1
    44     3    41    1
    45     7    42    1
    46     8    43    1
    47    10    44    1
    48    11    45    1
    49    12    46    1
    50    13    47    1
    51    15    48    1
    52    16    49    1
    53    19    50    1
    54    19    51    1
    55    19    52    1
    56    20    53    1
    57    20    54    1
    58    21    55    1
    59    21    56    1
    60    21    57    1
    61    22    58    1
    62    26    59    1
    63    30    60    1
    64    33    61    1
    65    33    62    1
    66    33    63    1
    67    35    64    1
    68    35    65    1
    69    36    66    1
    70    36    67    1
@<TRIPOS>MOLECULE
*****
 67 70 0 0 0
SMALL
GASTEIGER

@<TRIPOS>ATOM
      1 C           1.1651   -2.8365   -4.3283 C.ar    1  LIG1        0.0483
      2 C           0.7954   -3.1757   -3.0470 C.ar    1  LIG1        0.0543
      3 C           1.5269   -2.5850   -2.0416 C.ar    1  LIG1        0.0483
      4 N           2.5434   -1.7248   -2.2632 N.ar    1  LIG1       -0.2022
      5 N           2.1790   -1.9934   -4.6116 N.ar    1  LIG1       -0.2022
      6 C           5.9783    0.1122   -9.7137 C.ar    1  LIG1       -0.0504
      7 C           4.8276    0.8656   -9.9217 C.ar    1  LIG1       -0.0583
      8 C           4.3774    1.7631   -8.9435 C.ar    1  LIG1       -0.0535
      9 C           5.0713    1.9698   -7.7350 C.ar    1  LIG1       -0.0094
     10 C           6.2367    1.2024   -7.5553 C.ar    1  LIG1       -0.0535
     11 C           6.6703    0.2719   -8.5128 C.ar    1  LIG1       -0.0583
     12 C           3.5735    9.1937   -8.4924 C.ar    1  LIG1       -0.0561
     13 C           4.1514    7.9532   -8.2024 C.ar    1  LIG1       -0.0348
     14 C           4.4092    7.0579   -9.2381 C.ar    1  LIG1        0.1086
     15 C           4.1123    7.4002  -10.5552 C.ar    1  LIG1       -0.0348
     16 C           3.5307    8.6421  -10.8343 C.ar    1  LIG1       -0.0561
     17 C           2.6210   10.9493  -10.1107 C.3     1  LIG1        0.0132
     18 C           3.2360    9.5635   -9.8127 C.ar    1  LIG1       -0.0394
     19 C           3.7322   12.0088   -9.9595 C.3     1  LIG1       -0.0537
     20 C           1.9649   11.0744  -11.5229 C.3     1  LIG1        0.0533
     21 C           1.4911   11.2661   -9.0987 C.3     1  LIG1       -0.0537
     22 O           2.9018   11.1066  -12.5965 O.3     1  LIG1       -0.3942
     23 S           5.1232    5.4652   -8.8737 S.O2    1  LIG1        0.0735
     24 O           6.0971    5.6692   -7.8197 O.2     1  LIG1       -0.1499
     25 O           5.4844    4.8630  -10.1366 O.2     1  LIG1       -0.1499
     26 N           3.7540    4.6537   -8.2848 N.pl3   1  LIG1       -0.1988
     27 C           4.5731    2.9209   -6.6996 C.ar    1  LIG1        0.0847
     28 C           4.6352    2.6922   -5.3246 C.ar    1  LIG1        0.2276
     29 N           4.1245    3.5115   -4.3751 N.ar    1  LIG1       -0.2008
     30 C           3.5269    4.6206   -4.8110 C.ar    1  LIG1        0.1219
     31 N           3.3822    4.9755   -6.0858 N.ar    1  LIG1       -0.2186
     32 C           3.9187    4.1204   -6.9784 C.ar    1  LIG1        0.1524
     33 C           6.4317   -0.8911  -10.7316 C.3     1  LIG1       -0.0397
     34 O           5.2526    1.5396   -4.8859 O.3     1  LIG1       -0.4724
     35 C           5.1987    1.2692   -3.4822 C.3     1  LIG1        0.1252
     36 C           3.9207    0.5139   -3.1213 C.3     1  LIG1        0.1267
     37 O           3.9253   -0.7177   -3.8465 O.3     1  LIG1       -0.4590
     38 C           2.8176   -1.4688   -3.5542 C.ar    1  LIG1        0.3180
     39 BR         -0.6047   -4.3728   -2.6947 Br      1  LIG1       -0.0472
     40 H           0.6561   -3.2444   -5.1971 H       1  LIG1        0.0843
     41 H           1.3239   -2.7924   -0.9947 H       1  LIG1        0.0843
     42 H           4.2625    0.7630  -10.8436 H       1  LIG1        0.0620
     43 H           3.4564    2.3035   -9.1573 H       1  LIG1        0.0624
     44 H           6.8363    1.3018   -6.6554 H       1  LIG1        0.0624
     45 H           7.5592   -0.3241   -8.3054 H       1  LIG1        0.0620
     46 H           3.4049    9.8765   -7.6635 H       1  LIG1        0.0621
     47 H           4.3997    7.6979   -7.1730 H       1  LIG1        0.0637
     48 H           4.3301    6.7181  -11.3746 H       1  LIG1        0.0637
     49 H           3.3300    8.8702  -11.8790 H       1  LIG1        0.0621
     50 H           4.1149   12.0503   -8.9328 H       1  LIG1        0.0239
     51 H           3.3606   13.0088  -10.2104 H       1  LIG1        0.0239
     52 H           4.5873   11.7929  -10.6111 H       1  LIG1        0.0239
     53 H           1.3755   11.9964  -11.5977 H       1  LIG1        0.0566
     54 H           1.2746   10.2421  -11.7048 H       1  LIG1        0.0566
     55 H           0.7204   10.4867   -9.1100 H       1  LIG1        0.0239
     56 H           1.0045   12.2207   -9.3358 H       1  LIG1        0.0239
     57 H           1.8588   11.3579   -8.0712 H       1  LIG1        0.0239
     58 H           3.3892   11.9460  -12.5446 H       1  LIG1        0.2094
     59 H           2.9506    5.2796   -8.2688 H       1  LIG1        0.1753
     60 H           3.1242    5.2911   -4.0602 H       1  LIG1        0.1049
     61 H           6.1632   -0.5689  -11.7439 H       1  LIG1        0.0278
     62 H           5.9645   -1.8615  -10.5353 H       1  LIG1        0.0278
     63 H           7.5203   -1.0114  -10.7082 H       1  LIG1        0.0278
     64 H           5.3338    2.1685   -2.8711 H       1  LIG1        0.0731
     65 H           6.0588    0.6233   -3.2723 H       1  LIG1        0.0731
     66 H           3.0354    1.0967   -3.4005 H       1  LIG1        0.0732
     67 H           3.9199    0.3338   -2.0400 H       1  LIG1        0.0732
@<TRIPOS>BOND
     1     1     2   ar
     2     2     3   ar
     3     2    39    1
     4     3     4   ar
     5     4    38   ar
     6     5     1   ar
     7     6     7   ar
     8     6    33    1
     9     7     8   ar
    10     8     9   ar
    11     9    10   ar
    12    10    11   ar
    13    11     6   ar
    14    12    13   ar
    15    13    14   ar
    16    14    15   ar
    17    15    16   ar
    18    16    18   ar
    19    17    18    1
    20    17    21    1
    21    17    20    1
    22    17    19    1
    23    18    12   ar
    24    20    22    1
    25    23    26    1
    26    23    25    2
    27    23    24    2
    28    23    14    1
    29    26    32    1
    30    27    28   ar
    31    27     9    1
    32    28    29   ar
    33    29    30   ar
    34    30    31   ar
    35    31    32   ar
    36    32    27   ar
    37    34    35    1
    38    34    28    1
    39    35    36    1
    40    36    37    1
    41    37    38    1
    42    38     5   ar
    43     1    40    1
    44     3    41    1
    45     7    42    1
    46     8    43    1
    47    10    44    1
    48    11    45    1
    49    12    46    1
    50    13    47    1
    51    15    48    1
    52    16    49    1
    53    19    50    1
    54    19    51    1
    55    19    52    1
    56    20    53    1
    57    20    54    1
    58    21    55    1
    59    21    56    1
    60    21    57    1
    61    22    58    1
    62    26    59    1
    63    30    60    1
    64    33    61    1
    65    33    62    1
    66    33    63    1
    67    35    64    1
    68    35    65    1
    69    36    66    1
    70    36    67    1
@<TRIPOS>MOLECULE
*****
 67 70 0 0 0
SMALL
GASTEIGER

@<TRIPOS>ATOM
      1 C           3.5910   -3.7590   -4.1038 C.ar    1  LIG1        0.0483
      2 C           4.5364   -4.1081   -3.1697 C.ar    1  LIG1        0.0543
      3 C           5.0942   -3.0621   -2.4707 C.ar    1  LIG1        0.0483
      4 N           4.7525   -1.7675   -2.6583 N.ar    1  LIG1       -0.2022
      5 N           3.2174   -2.4845   -4.3394 N.ar    1  LIG1       -0.2022
      6 C           4.4519   -0.5828   -9.4833 C.ar    1  LIG1       -0.0504
      7 C           4.2821   -0.7739   -8.1182 C.ar    1  LIG1       -0.0583
      8 C           4.2690    0.3230   -7.2459 C.ar    1  LIG1       -0.0535
      9 C           4.4717    1.6557   -7.6658 C.ar    1  LIG1       -0.0094
     10 C           4.6687    1.8060   -9.0495 C.ar    1  LIG1       -0.0535
     11 C           4.6243    0.7197   -9.9446 C.ar    1  LIG1       -0.0583
     12 C           1.4647    8.3145   -9.6476 C.ar    1  LIG1       -0.0561
     13 C           1.9596    7.0087   -9.5998 C.ar    1  LIG1       -0.0348
     14 C           1.4789    6.1193   -8.6376 C.ar    1  LIG1        0.1086
     15 C           0.5081    6.5284   -7.7293 C.ar    1  LIG1       -0.0348
     16 C           0.0185    7.8410   -7.7846 C.ar    1  LIG1       -0.0561
     17 C          -0.0881   10.1956   -8.8610 C.3     1  LIG1        0.0132
     18 C           0.4828    8.7646   -8.7413 C.ar    1  LIG1       -0.0394
     19 C          -0.9770   10.2513  -10.1225 C.3     1  LIG1       -0.0537
     20 C          -0.9071   10.6711   -7.6213 C.3     1  LIG1        0.0533
     21 C           1.0624   11.2219   -9.0222 C.3     1  LIG1       -0.0537
     22 O          -2.1699   10.0254   -7.4793 O.3     1  LIG1       -0.3942
     23 S           2.0428    4.4334   -8.6749 S.O2    1  LIG1        0.0735
     24 O           2.0941    4.0529  -10.0693 O.2     1  LIG1       -0.1499
     25 O           1.2916    3.6660   -7.7055 O.2     1  LIG1       -0.1499
     26 N           3.6331    4.6026   -8.1944 N.pl3   1  LIG1       -0.1988
     27 C           4.4359    2.7928   -6.6780 C.ar    1  LIG1        0.0847
     28 C           4.8161    2.6535   -5.3339 C.ar    1  LIG1        0.2276
     29 N           4.7211    3.6099   -4.3816 N.ar    1  LIG1       -0.2008
     30 C           4.2255    4.7798   -4.7741 C.ar    1  LIG1        0.1219
     31 N           3.8682    5.0842   -6.0165 N.ar    1  LIG1       -0.2186
     32 C           3.9904    4.0969   -6.9263 C.ar    1  LIG1        0.1524
     33 C           4.3718   -1.7417  -10.4287 C.3     1  LIG1       -0.0397
     34 O           5.4337    1.4803   -4.9456 O.3     1  LIG1       -0.4724
     35 C           5.3894    1.1774   -3.5440 C.3     1  LIG1        0.1252
     36 C           3.9900    0.7669   -3.0643 C.3     1  LIG1        0.1267
     37 O           3.4057   -0.2598   -3.8674 O.3     1  LIG1       -0.4590
     38 C           3.8157   -1.5409   -3.5945 C.ar    1  LIG1        0.3180
     39 BR          5.0309   -5.8927   -2.8658 Br      1  LIG1       -0.0472
     40 H           3.0846   -4.5032   -4.7116 H       1  LIG1        0.0843
     41 H           5.8549   -3.2283   -1.7136 H       1  LIG1        0.0843
     42 H           4.1344   -1.7712   -7.7099 H       1  LIG1        0.0620
     43 H           4.0739    0.0901   -6.2060 H       1  LIG1        0.0624
     44 H           4.8643    2.7645   -9.5057 H       1  LIG1        0.0624
     45 H           4.7245    0.9113  -11.0105 H       1  LIG1        0.0620
     46 H           1.8443    8.9686  -10.4291 H       1  LIG1        0.0621
     47 H           2.6998    6.6898  -10.3296 H       1  LIG1        0.0637
     48 H           0.1089    5.8366   -6.9912 H       1  LIG1        0.0637
     49 H          -0.7570    8.1103   -7.0708 H       1  LIG1        0.0621
     50 H          -0.3981   10.0695  -11.0357 H       1  LIG1        0.0239
     51 H          -1.4509   11.2339  -10.2277 H       1  LIG1        0.0239
     52 H          -1.7701    9.4951  -10.0914 H       1  LIG1        0.0239
     53 H          -1.1137   11.7465   -7.6827 H       1  LIG1        0.0566
     54 H          -0.3410   10.5101   -6.6965 H       1  LIG1        0.0566
     55 H           1.7714   11.1556   -8.1889 H       1  LIG1        0.0239
     56 H           0.6749   12.2474   -9.0513 H       1  LIG1        0.0239
     57 H           1.6253   11.0823   -9.9511 H       1  LIG1        0.0239
     58 H          -2.7386   10.3141   -8.2127 H       1  LIG1        0.2094
     59 H           4.2939    4.4776   -8.9474 H       1  LIG1        0.1753
     60 H           4.1180    5.5539   -4.0229 H       1  LIG1        0.1049
     61 H           4.8434   -2.6298   -9.9945 H       1  LIG1        0.0278
     62 H           4.8908   -1.5231  -11.3676 H       1  LIG1        0.0278
     63 H           3.3248   -1.9701  -10.6514 H       1  LIG1        0.0278
     64 H           5.7907    2.0005   -2.9404 H       1  LIG1        0.0731
     65 H           6.0838    0.3425   -3.4071 H       1  LIG1        0.0731
     66 H           3.3124    1.6229   -3.1514 H       1  LIG1        0.0732
     67 H           3.9931    0.4948   -2.0015 H       1  LIG1        0.0732
@<TRIPOS>BOND
     1     1     2   ar
     2     2     3   ar
     3     2    39    1
     4     3     4   ar
     5     4    38   ar
     6     5     1   ar
     7     6     7   ar
     8     6    33    1
     9     7     8   ar
    10     8     9   ar
    11     9    10   ar
    12    10    11   ar
    13    11     6   ar
    14    12    13   ar
    15    13    14   ar
    16    14    15   ar
    17    15    16   ar
    18    16    18   ar
    19    17    18    1
    20    17    21    1
    21    17    20    1
    22    17    19    1
    23    18    12   ar
    24    20    22    1
    25    23    26    1
    26    23    25    2
    27    23    24    2
    28    23    14    1
    29    26    32    1
    30    27    28   ar
    31    27     9    1
    32    28    29   ar
    33    29    30   ar
    34    30    31   ar
    35    31    32   ar
    36    32    27   ar
    37    34    35    1
    38    34    28    1
    39    35    36    1
    40    36    37    1
    41    37    38    1
    42    38     5   ar
    43     1    40    1
    44     3    41    1
    45     7    42    1
    46     8    43    1
    47    10    44    1
    48    11    45    1
    49    12    46    1
    50    13    47    1
    51    15    48    1
    52    16    49    1
    53    19    50    1
    54    19    51    1
    55    19    52    1
    56    20    53    1
    57    20    54    1
    58    21    55    1
    59    21    56    1
    60    21    57    1
    61    22    58    1
    62    26    59    1
    63    30    60    1
    64    33    61    1
    65    33    62    1
    66    33    63    1
    67    35    64    1
    68    35    65    1
    69    36    66    1
    70    36    67    1
@<TRIPOS>MOLECULE
*****
 67 70 0 0 0
SMALL
GASTEIGER

@<TRIPOS>ATOM
      1 C          10.9990    1.1430   -5.1602 C.ar    1  LIG1        0.0483
      2 C          11.8239    2.2428   -5.1902 C.ar    1  LIG1        0.0543
      3 C          11.2522    3.4242   -4.7791 C.ar    1  LIG1        0.0483
      4 N           9.9662    3.5319   -4.3826 N.ar    1  LIG1       -0.2022
      5 N           9.7113    1.1886   -4.7570 N.ar    1  LIG1       -0.2022
      6 C           5.8551    0.0026   -9.3169 C.ar    1  LIG1       -0.0504
      7 C           6.2334    1.3384   -9.4729 C.ar    1  LIG1       -0.0583
      8 C           5.7900    2.3146   -8.5712 C.ar    1  LIG1       -0.0535
      9 C           4.9559    1.9882   -7.4873 C.ar    1  LIG1       -0.0094
     10 C           4.5680    0.6424   -7.3610 C.ar    1  LIG1       -0.0535
     11 C           5.0220   -0.3386   -8.2499 C.ar    1  LIG1       -0.0583
     12 C           2.8309    5.5574  -12.4182 C.ar    1  LIG1       -0.0561
     13 C           2.8957    4.8097  -11.2357 C.ar    1  LIG1       -0.0348
     14 C           2.1152    5.1803  -10.1433 C.ar    1  LIG1        0.1086
     15 C           1.2652    6.2811  -10.2265 C.ar    1  LIG1       -0.0348
     16 C           1.2090    7.0220  -11.4118 C.ar    1  LIG1       -0.0561
     17 C           1.9215    7.5261  -13.8322 C.3     1  LIG1        0.0132
     18 C           1.9791    6.6741  -12.5408 C.ar    1  LIG1       -0.0394
     19 C           2.8210    8.7641  -13.6283 C.3     1  LIG1       -0.0537
     20 C           2.4220    6.7461  -15.0853 C.3     1  LIG1        0.0533
     21 C           0.4815    8.0203  -14.1232 C.3     1  LIG1       -0.0537
     22 O           2.3170    7.4998  -16.2917 O.3     1  LIG1       -0.3942
     23 S           2.2313    4.2502   -8.6308 S.O2    1  LIG1        0.0735
     24 O           2.2500    2.8497   -8.9852 O.2     1  LIG1       -0.1499
     25 O           1.2409    4.7872   -7.7192 O.2     1  LIG1       -0.1499
     26 N           3.7688    4.7431   -8.0999 N.pl3   1  LIG1       -0.1988
     27 C           4.5593    3.0058   -6.4886 C.ar    1  LIG1        0.0847
     28 C           4.7201    2.8287   -5.1139 C.ar    1  LIG1        0.2276
     29 N           4.4208    3.7516   -4.1761 N.ar    1  LIG1       -0.2008
     30 C           3.9946    4.9305   -4.6273 C.ar    1  LIG1        0.1219
     31 N           3.8207    5.2551   -5.9081 N.ar    1  LIG1       -0.2186
     32 C           4.0818    4.2748   -6.7916 C.ar    1  LIG1        0.1524
     33 C           6.3926   -1.0579  -10.2308 C.3     1  LIG1       -0.0397
     34 O           5.1554    1.5974   -4.6689 O.3     1  LIG1       -0.4724
     35 C           5.8274    1.5732   -3.4041 C.3     1  LIG1        0.1252
     36 C           7.3146    1.3196   -3.6425 C.3     1  LIG1        0.1267
     37 O           7.9270    2.5471   -4.0443 O.3     1  LIG1       -0.4590
     38 C           9.2498    2.3971   -4.3901 C.ar    1  LIG1        0.3180
     39 BR         13.6083    2.1385   -5.7614 Br      1  LIG1       -0.0472
     40 H          11.3455    0.1619   -5.4712 H       1  LIG1        0.0843
     41 H          11.8153    4.3526   -4.7572 H       1  LIG1        0.0843
     42 H           6.8892    1.6300  -10.2899 H       1  LIG1        0.0620
     43 H           6.1281    3.3385   -8.7162 H       1  LIG1        0.0624
     44 H           3.9137    0.3340   -6.5474 H       1  LIG1        0.0624
     45 H           4.7221   -1.3724   -8.0937 H       1  LIG1        0.0620
     46 H           3.4762    5.2417  -13.2339 H       1  LIG1        0.0621
     47 H           3.5603    3.9500  -11.1725 H       1  LIG1        0.0637
     48 H           0.6491    6.5785   -9.3806 H       1  LIG1        0.0637
     49 H           0.5532    7.8894  -11.4254 H       1  LIG1        0.0621
     50 H           2.4954    9.3623  -12.7691 H       1  LIG1        0.0239
     51 H           2.8081    9.4197  -14.5062 H       1  LIG1        0.0239
     52 H           3.8620    8.4718  -13.4462 H       1  LIG1        0.0239
     53 H           1.8655    5.8108  -15.2196 H       1  LIG1        0.0566
     54 H           3.4817    6.4890  -14.9873 H       1  LIG1        0.0566
     55 H          -0.2121    7.1768  -14.2160 H       1  LIG1        0.0239
     56 H           0.4294    8.6017  -15.0503 H       1  LIG1        0.0239
     57 H           0.0998    8.6842  -13.3406 H       1  LIG1        0.0239
     58 H           1.4046    7.4094  -16.6163 H       1  LIG1        0.2094
     59 H           3.7553    5.7614   -8.0294 H       1  LIG1        0.1753
     60 H           3.7676    5.6905   -3.8880 H       1  LIG1        0.1049
     61 H           6.5713   -0.6579  -11.2341 H       1  LIG1        0.0278
     62 H           5.6828   -1.8858  -10.3313 H       1  LIG1        0.0278
     63 H           7.3349   -1.4490   -9.8338 H       1  LIG1        0.0278
     64 H           5.4060    0.7255   -2.8530 H       1  LIG1        0.0731
     65 H           5.6804    2.4683   -2.7912 H       1  LIG1        0.0731
     66 H           7.4198    0.5520   -4.4188 H       1  LIG1        0.0732
     67 H           7.7782    0.9802   -2.7083 H       1  LIG1        0.0732
@<TRIPOS>BOND
     1     1     2   ar
     2     2     3   ar
     3     2    39    1
     4     3     4   ar
     5     4    38   ar
     6     5     1   ar
     7     6     7   ar
     8     6    33    1
     9     7     8   ar
    10     8     9   ar
    11     9    10   ar
    12    10    11   ar
    13    11     6   ar
    14    12    13   ar
    15    13    14   ar
    16    14    15   ar
    17    15    16   ar
    18    16    18   ar
    19    17    18    1
    20    17    21    1
    21    17    20    1
    22    17    19    1
    23    18    12   ar
    24    20    22    1
    25    23    26    1
    26    23    25    2
    27    23    24    2
    28    23    14    1
    29    26    32    1
    30    27    28   ar
    31    27     9    1
    32    28    29   ar
    33    29    30   ar
    34    30    31   ar
    35    31    32   ar
    36    32    27   ar
    37    34    35    1
    38    34    28    1
    39    35    36    1
    40    36    37    1
    41    37    38    1
    42    38     5   ar
    43     1    40    1
    44     3    41    1
    45     7    42    1
    46     8    43    1
    47    10    44    1
    48    11    45    1
    49    12    46    1
    50    13    47    1
    51    15    48    1
    52    16    49    1
    53    19    50    1
    54    19    51    1
    55    19    52    1
    56    20    53    1
    57    20    54    1
    58    21    55    1
    59    21    56    1
    60    21    57    1
    61    22    58    1
    62    26    59    1
    63    30    60    1
    64    33    61    1
    65    33    62    1
    66    33    63    1
    67    35    64    1
    68    35    65    1
    69    36    66    1
    70    36    67    1
@<TRIPOS>MOLECULE
*****
 67 70 0 0 0
SMALL
GASTEIGER

@<TRIPOS>ATOM
      1 C           5.2330   -4.3455   -3.8818 C.ar    1  LIG1        0.0483
      2 C           4.7734   -4.6966   -2.6337 C.ar    1  LIG1        0.0543
      3 C           4.7417   -3.6818   -1.7061 C.ar    1  LIG1        0.0483
      4 N           5.1196   -2.4137   -1.9757 N.ar    1  LIG1       -0.2022
      5 N           5.6296   -3.0964   -4.2072 N.ar    1  LIG1       -0.2022
      6 C           4.5395   -0.6131   -9.0161 C.ar    1  LIG1       -0.0504
      7 C           5.5865   -0.3232   -8.1399 C.ar    1  LIG1       -0.0583
      8 C           5.5394    0.8194   -7.3332 C.ar    1  LIG1       -0.0535
      9 C           4.4447    1.7030   -7.3694 C.ar    1  LIG1       -0.0094
     10 C           3.4103    1.4068   -8.2725 C.ar    1  LIG1       -0.0535
     11 C           3.4589    0.2701   -9.0888 C.ar    1  LIG1       -0.0583
     12 C           5.0958    3.9718  -12.7402 C.ar    1  LIG1       -0.0561
     13 C           4.8830    4.7436  -11.5930 C.ar    1  LIG1       -0.0348
     14 C           5.3754    4.2988  -10.3691 C.ar    1  LIG1        0.1086
     15 C           6.1057    3.1157  -10.2939 C.ar    1  LIG1       -0.0348
     16 C           6.3033    2.3445  -11.4409 C.ar    1  LIG1       -0.0561
     17 C           6.0238    1.9204  -13.9685 C.3     1  LIG1        0.0132
     18 C           5.7944    2.7472  -12.6883 C.ar    1  LIG1       -0.0394
     19 C           6.5476    0.4910  -13.6837 C.3     1  LIG1       -0.0537
     20 C           4.7298    1.7954  -14.8273 C.3     1  LIG1        0.0533
     21 C           7.0962    2.6412  -14.8159 C.3     1  LIG1       -0.0537
     22 O           3.6364    1.2119  -14.1244 O.3     1  LIG1       -0.3942
     23 S           5.1678    5.2767   -8.9034 S.O2    1  LIG1        0.0735
     24 O           4.7342    6.5947   -9.3187 O.2     1  LIG1       -0.1499
     25 O           6.3499    5.0864   -8.0890 O.2     1  LIG1       -0.1499
     26 N           3.8127    4.5401   -8.1948 N.pl3   1  LIG1       -0.1988
     27 C           4.3686    2.8653   -6.4592 C.ar    1  LIG1        0.0847
     28 C           4.5847    2.7680   -5.0871 C.ar    1  LIG1        0.2276
     29 N           4.4952    3.7943   -4.2149 N.ar    1  LIG1       -0.2008
     30 C           4.1554    4.9750   -4.7360 C.ar    1  LIG1        0.1219
     31 N           3.8853    5.2121   -6.0207 N.ar    1  LIG1       -0.2186
     32 C           4.0253    4.1568   -6.8410 C.ar    1  LIG1        0.1524
     33 C           4.5629   -1.8474   -9.8668 C.3     1  LIG1       -0.0397
     34 O           4.7522    1.5055   -4.5528 O.3     1  LIG1       -0.4724
     35 C           5.5518    1.4661   -3.3659 C.3     1  LIG1        0.1252
     36 C           5.3790    0.0887   -2.7277 C.3     1  LIG1        0.1267
     37 O           5.9364   -0.9078   -3.5893 O.3     1  LIG1       -0.4590
     38 C           5.5365   -2.1773   -3.2340 C.ar    1  LIG1        0.3180
     39 BR          4.2249   -6.4436   -2.2222 Br      1  LIG1       -0.0472
     40 H           5.3000   -5.0698   -4.6882 H       1  LIG1        0.0843
     41 H           4.4017   -3.8509   -0.6886 H       1  LIG1        0.0843
     42 H           6.4403   -0.9923   -8.0565 H       1  LIG1        0.0620
     43 H           6.3701    0.9995   -6.6522 H       1  LIG1        0.0624
     44 H           2.5351    2.0497   -8.3400 H       1  LIG1        0.0624
     45 H           2.6337    0.0710   -9.7693 H       1  LIG1        0.0620
     46 H           4.7072    4.3507  -13.6830 H       1  LIG1        0.0621
     47 H           4.3437    5.6846  -11.6716 H       1  LIG1        0.0637
     48 H           6.5269    2.7831   -9.3486 H       1  LIG1        0.0637
     49 H           6.8715    1.4258  -11.3238 H       1  LIG1        0.0621
     50 H           7.5536    0.5084  -13.2477 H       1  LIG1        0.0239
     51 H           6.6165   -0.0949  -14.6076 H       1  LIG1        0.0239
     52 H           5.8963   -0.0562  -12.9932 H       1  LIG1        0.0239
     53 H           4.9167    1.1778  -15.7140 H       1  LIG1        0.0566
     54 H           4.3936    2.7687  -15.1991 H       1  LIG1        0.0566
     55 H           6.7689    3.6417  -15.1214 H       1  LIG1        0.0239
     56 H           7.3236    2.0776  -15.7282 H       1  LIG1        0.0239
     57 H           8.0319    2.7603  -14.2564 H       1  LIG1        0.0239
     58 H           3.9378    0.3828  -13.7199 H       1  LIG1        0.2094
     59 H           3.0804    5.2511   -8.2166 H       1  LIG1        0.1753
     60 H           4.0841    5.8142   -4.0528 H       1  LIG1        0.1049
     61 H           5.3997   -2.5021   -9.6010 H       1  LIG1        0.0278
     62 H           4.6624   -1.5773  -10.9225 H       1  LIG1        0.0278
     63 H           3.6404   -2.4207   -9.7265 H       1  LIG1        0.0278
     64 H           5.2359    2.2158   -2.6326 H       1  LIG1        0.0731
     65 H           6.5993    1.6305   -3.6439 H       1  LIG1        0.0731
     66 H           4.3059   -0.0901   -2.5782 H       1  LIG1        0.0732
     67 H           5.9034    0.0705   -1.7651 H       1  LIG1        0.0732
@<TRIPOS>BOND
     1     1     2   ar
     2     2     3   ar
     3     2    39    1
     4     3     4   ar
     5     4    38   ar
     6     5     1   ar
     7     6     7   ar
     8     6    33    1
     9     7     8   ar
    10     8     9   ar
    11     9    10   ar
    12    10    11   ar
    13    11     6   ar
    14    12    13   ar
    15    13    14   ar
    16    14    15   ar
    17    15    16   ar
    18    16    18   ar
    19    17    18    1
    20    17    21    1
    21    17    20    1
    22    17    19    1
    23    18    12   ar
    24    20    22    1
    25    23    26    1
    26    23    25    2
    27    23    24    2
    28    23    14    1
    29    26    32    1
    30    27    28   ar
    31    27     9    1
    32    28    29   ar
    33    29    30   ar
    34    30    31   ar
    35    31    32   ar
    36    32    27   ar
    37    34    35    1
    38    34    28    1
    39    35    36    1
    40    36    37    1
    41    37    38    1
    42    38     5   ar
    43     1    40    1
    44     3    41    1
    45     7    42    1
    46     8    43    1
    47    10    44    1
    48    11    45    1
    49    12    46    1
    50    13    47    1
    51    15    48    1
    52    16    49    1
    53    19    50    1
    54    19    51    1
    55    19    52    1
    56    20    53    1
    57    20    54    1
    58    21    55    1
    59    21    56    1
    60    21    57    1
    61    22    58    1
    62    26    59    1
    63    30    60    1
    64    33    61    1
    65    33    62    1
    66    33    63    1
    67    35    64    1
    68    35    65    1
    69    36    66    1
    70    36    67    1
@<TRIPOS>MOLECULE
*****
 67 70 0 0 0
SMALL
GASTEIGER

@<TRIPOS>ATOM
      1 C           3.4968   -3.0213   -1.0838 C.ar    1  LIG1        0.0483
      2 C           2.2291   -3.4242   -1.4349 C.ar    1  LIG1        0.0543
      3 C           1.5607   -2.5927   -2.3022 C.ar    1  LIG1        0.0483
      4 N           2.0847   -1.4482   -2.7873 N.ar    1  LIG1       -0.2022
      5 N           4.0774   -1.8936   -1.5477 N.ar    1  LIG1       -0.2022
      6 C           5.9147    0.0750   -9.6544 C.ar    1  LIG1       -0.0504
      7 C           4.7450    0.8182   -9.8145 C.ar    1  LIG1       -0.0583
      8 C           4.3330    1.7234   -8.8253 C.ar    1  LIG1       -0.0535
      9 C           5.0815    1.9415   -7.6529 C.ar    1  LIG1       -0.0094
     10 C           6.2547    1.1742   -7.5157 C.ar    1  LIG1       -0.0535
     11 C           6.6536    0.2420   -8.4840 C.ar    1  LIG1       -0.0583
     12 C           2.8286    7.1395  -11.8715 C.ar    1  LIG1       -0.0561
     13 C           3.3601    6.8703  -10.6081 C.ar    1  LIG1       -0.0348
     14 C           4.3205    5.8691  -10.4624 C.ar    1  LIG1        0.1086
     15 C           4.7582    5.1468  -11.5680 C.ar    1  LIG1       -0.0348
     16 C           4.2207    5.4261  -12.8311 C.ar    1  LIG1       -0.0561
     17 C           2.6528    6.7566  -14.4044 C.3     1  LIG1        0.0132
     18 C           3.2518    6.4333  -13.0157 C.ar    1  LIG1       -0.0394
     19 C           3.5536    6.2633  -15.5641 C.3     1  LIG1       -0.0537
     20 C           1.2772    6.0529  -14.5625 C.3     1  LIG1        0.0533
     21 C           2.4918    8.2836  -14.6034 C.3     1  LIG1       -0.0537
     22 O           0.2840    6.5602  -13.6756 O.3     1  LIG1       -0.3942
     23 S           4.9975    5.5520   -8.8479 S.O2    1  LIG1        0.0735
     24 O           5.0501    6.8266   -8.1596 O.2     1  LIG1       -0.1499
     25 O           6.1704    4.7236   -9.0024 O.2     1  LIG1       -0.1499
     26 N           3.7251    4.6420   -8.1855 N.pl3   1  LIG1       -0.1988
     27 C           4.6629    2.9293   -6.6173 C.ar    1  LIG1        0.0847
     28 C           4.8226    2.7446   -5.2413 C.ar    1  LIG1        0.2276
     29 N           4.4474    3.6356   -4.2962 N.ar    1  LIG1       -0.2008
     30 C           3.8442    4.7426   -4.7170 C.ar    1  LIG1        0.1219
     31 N           3.5868    5.0373   -5.9855 N.ar    1  LIG1       -0.2186
     32 C           4.0258    4.1396   -6.8867 C.ar    1  LIG1        0.1524
     33 C           6.3373   -0.9234  -10.6904 C.3     1  LIG1       -0.0397
     34 O           5.3220    1.5365   -4.7931 O.3     1  LIG1       -0.4724
     35 C           5.6615    1.4628   -3.4016 C.3     1  LIG1        0.1252
     36 C           5.2473    0.0963   -2.8612 C.3     1  LIG1        0.1267
     37 O           3.8188    0.0414   -2.8549 O.3     1  LIG1       -0.4590
     38 C           3.3329   -1.1562   -2.3912 C.ar    1  LIG1        0.3180
     39 BR          1.4609   -5.0021   -0.7705 Br      1  LIG1       -0.0472
     40 H           4.1077   -3.6006   -0.3975 H       1  LIG1        0.0843
     41 H           0.5552   -2.8149   -2.6469 H       1  LIG1        0.0843
     42 H           4.1394    0.7010  -10.7103 H       1  LIG1        0.0620
     43 H           3.4026    2.2590   -8.9976 H       1  LIG1        0.0624
     44 H           6.8936    1.2901   -6.6431 H       1  LIG1        0.0624
     45 H           7.5560   -0.3415   -8.3151 H       1  LIG1        0.0620
     46 H           2.0747    7.9213  -11.9446 H       1  LIG1        0.0621
     47 H           3.0248    7.4516   -9.7518 H       1  LIG1        0.0637
     48 H           5.5152    4.3719  -11.4621 H       1  LIG1        0.0637
     49 H           4.5919    4.8376  -13.6664 H       1  LIG1        0.0621
     50 H           4.5715    6.6607  -15.4775 H       1  LIG1        0.0239
     51 H           3.1572    6.5831  -16.5355 H       1  LIG1        0.0239
     52 H           3.6144    5.1697  -15.5989 H       1  LIG1        0.0239
     53 H           1.3584    4.9715  -14.4002 H       1  LIG1        0.0566
     54 H           0.8930    6.2011  -15.5783 H       1  LIG1        0.0566
     55 H           1.7619    8.7291  -13.9204 H       1  LIG1        0.0239
     56 H           2.1458    8.5136  -15.6182 H       1  LIG1        0.0239
     57 H           3.4463    8.8020  -14.4529 H       1  LIG1        0.0239
     58 H           0.4826    6.1977  -12.7947 H       1  LIG1        0.2094
     59 H           2.9614    5.3009   -8.0254 H       1  LIG1        0.1753
     60 H           3.5328    5.4574   -3.9640 H       1  LIG1        0.1049
     61 H           6.0516   -0.5893  -11.6935 H       1  LIG1        0.0278
     62 H           5.8686   -1.8923  -10.4926 H       1  LIG1        0.0278
     63 H           7.4251   -1.0514  -10.6901 H       1  LIG1        0.0278
     64 H           5.1858    2.2253   -2.7769 H       1  LIG1        0.0731
     65 H           6.7477    1.5795   -3.3216 H       1  LIG1        0.0731
     66 H           5.6405   -0.0030   -1.8422 H       1  LIG1        0.0732
     67 H           5.6456   -0.6985   -3.5034 H       1  LIG1        0.0732
@<TRIPOS>BOND
     1     1     2   ar
     2     2     3   ar
     3     2    39    1
     4     3     4   ar
     5     4    38   ar
     6     5     1   ar
     7     6     7   ar
     8     6    33    1
     9     7     8   ar
    10     8     9   ar
    11     9    10   ar
    12    10    11   ar
    13    11     6   ar
    14    12    13   ar
    15    13    14   ar
    16    14    15   ar
    17    15    16   ar
    18    16    18   ar
    19    17    18    1
    20    17    21    1
    21    17    20    1
    22    17    19    1
    23    18    12   ar
    24    20    22    1
    25    23    26    1
    26    23    25    2
    27    23    24    2
    28    23    14    1
    29    26    32    1
    30    27    28   ar
    31    27     9    1
    32    28    29   ar
    33    29    30   ar
    34    30    31   ar
    35    31    32   ar
    36    32    27   ar
    37    34    35    1
    38    34    28    1
    39    35    36    1
    40    36    37    1
    41    37    38    1
    42    38     5   ar
    43     1    40    1
    44     3    41    1
    45     7    42    1
    46     8    43    1
    47    10    44    1
    48    11    45    1
    49    12    46    1
    50    13    47    1
    51    15    48    1
    52    16    49    1
    53    19    50    1
    54    19    51    1
    55    19    52    1
    56    20    53    1
    57    20    54    1
    58    21    55    1
    59    21    56    1
    60    21    57    1
    61    22    58    1
    62    26    59    1
    63    30    60    1
    64    33    61    1
    65    33    62    1
    66    33    63    1
    67    35    64    1
    68    35    65    1
    69    36    66    1
    70    36    67    1
@<TRIPOS>MOLECULE
*****
 67 70 0 0 0
SMALL
GASTEIGER

@<TRIPOS>ATOM
      1 C           8.0732    4.0882   -0.5686 C.ar    1  LIG1        0.0483
      2 C           8.2557    5.4352   -0.7741 C.ar    1  LIG1        0.0543
      3 C           8.2105    5.8465   -2.0856 C.ar    1  LIG1        0.0483
      4 N           8.0085    5.0076   -3.1240 N.ar    1  LIG1       -0.2022
      5 N           7.8602    3.2037   -1.5674 N.ar    1  LIG1       -0.2022
      6 C           5.9507    0.0320   -9.5930 C.ar    1  LIG1       -0.0504
      7 C           5.5483    1.3165   -9.9327 C.ar    1  LIG1       -0.0583
      8 C           5.1240    2.2236   -8.9438 C.ar    1  LIG1       -0.0535
      9 C           5.0473    1.9034   -7.5703 C.ar    1  LIG1       -0.0094
     10 C           5.4611    0.5858   -7.2764 C.ar    1  LIG1       -0.0535
     11 C           5.9181   -0.3216   -8.2505 C.ar    1  LIG1       -0.0583
     12 C           0.5749    8.0782   -8.0298 C.ar    1  LIG1       -0.0561
     13 C           1.2706    6.9693   -8.5238 C.ar    1  LIG1       -0.0348
     14 C           1.2774    5.7749   -7.8020 C.ar    1  LIG1        0.1086
     15 C           0.5735    5.6738   -6.6051 C.ar    1  LIG1       -0.0348
     16 C          -0.1216    6.7874   -6.1201 C.ar    1  LIG1       -0.0561
     17 C          -0.9249    9.2177   -6.2541 C.3     1  LIG1        0.0132
     18 C          -0.1390    8.0139   -6.8198 C.ar    1  LIG1       -0.0394
     19 C          -2.4057    8.8229   -6.0455 C.3     1  LIG1       -0.0537
     20 C          -0.2931    9.6365   -4.8968 C.3     1  LIG1        0.0533
     21 C          -0.9303   10.4464   -7.1969 C.3     1  LIG1       -0.0537
     22 O          -0.9807   10.7214   -4.2789 O.3     1  LIG1       -0.3942
     23 S           2.1337    4.3611   -8.4707 S.O2    1  LIG1        0.0735
     24 O           2.0486    4.4816   -9.9119 O.2     1  LIG1       -0.1499
     25 O           1.6599    3.1770   -7.7875 O.2     1  LIG1       -0.1499
     26 N           3.7497    4.6818   -8.0494 N.pl3   1  LIG1       -0.1988
     27 C           4.6234    2.9080   -6.5090 C.ar    1  LIG1        0.0847
     28 C           4.7482    2.7259   -5.1225 C.ar    1  LIG1        0.2276
     29 N           4.4608    3.6513   -4.1754 N.ar    1  LIG1       -0.2008
     30 C           4.0543    4.8397   -4.6014 C.ar    1  LIG1        0.1219
     31 N           3.8553    5.1665   -5.8716 N.ar    1  LIG1       -0.2186
     32 C           4.1223    4.1935   -6.7663 C.ar    1  LIG1        0.1524
     33 C           6.4627   -0.9234  -10.6263 C.3     1  LIG1       -0.0397
     34 O           5.0903    1.4894   -4.6274 O.3     1  LIG1       -0.4724
     35 C           5.7603    1.4610   -3.3594 C.3     1  LIG1        0.1252
     36 C           7.2739    1.5509   -3.5628 C.3     1  LIG1        0.1267
     37 O           7.6874    2.8772   -3.8953 O.3     1  LIG1       -0.4590
     38 C           7.8404    3.7131   -2.8129 C.ar    1  LIG1        0.3180
     39 BR          8.5518    6.6329    0.6400 Br      1  LIG1       -0.0472
     40 H           8.0988    3.6564    0.4277 H       1  LIG1        0.0843
     41 H           8.3406    6.8886   -2.3616 H       1  LIG1        0.0843
     42 H           5.5633    1.6422  -10.9710 H       1  LIG1        0.0620
     43 H           4.8717    3.2068   -9.3226 H       1  LIG1        0.0624
     44 H           5.4587    0.1891   -6.2693 H       1  LIG1        0.0624
     45 H           6.2464   -1.3105   -7.9367 H       1  LIG1        0.0620
     46 H           0.5989    8.9854   -8.6282 H       1  LIG1        0.0621
     47 H           1.7898    7.0461   -9.4773 H       1  LIG1        0.0637
     48 H           0.5557    4.7408   -6.0459 H       1  LIG1        0.0637
     49 H          -0.6632    6.6782   -5.1816 H       1  LIG1        0.0621
     50 H          -2.8485    8.4510   -6.9773 H       1  LIG1        0.0239
     51 H          -3.0060    9.6780   -5.7136 H       1  LIG1        0.0239
     52 H          -2.5222    8.0390   -5.2895 H       1  LIG1        0.0239
     53 H           0.7578    9.9244   -5.0219 H       1  LIG1        0.0566
     54 H          -0.3131    8.8090   -4.1796 H       1  LIG1        0.0566
     55 H           0.0798   10.8472   -7.3400 H       1  LIG1        0.0239
     56 H          -1.5471   11.2604   -6.7988 H       1  LIG1        0.0239
     57 H          -1.3410   10.1954   -8.1821 H       1  LIG1        0.0239
     58 H          -0.7265   11.5369   -4.7431 H       1  LIG1        0.2094
     59 H           3.8849    5.6918   -8.0247 H       1  LIG1        0.1753
     60 H           3.8532    5.5955   -3.8512 H       1  LIG1        0.1049
     61 H           6.1247   -0.6425  -11.6293 H       1  LIG1        0.0278
     62 H           6.0967   -1.9366  -10.4302 H       1  LIG1        0.0278
     63 H           7.5573   -0.9323  -10.6187 H       1  LIG1        0.0278
     64 H           5.5318    0.4786   -2.9306 H       1  LIG1        0.0731
     65 H           5.3798    2.2021   -2.6490 H       1  LIG1        0.0731
     66 H           7.5561    0.9241   -4.4169 H       1  LIG1        0.0732
     67 H           7.8207    1.1500   -2.7008 H       1  LIG1        0.0732
@<TRIPOS>BOND
     1     1     2   ar
     2     2     3   ar
     3     2    39    1
     4     3     4   ar
     5     4    38   ar
     6     5     1   ar
     7     6     7   ar
     8     6    33    1
     9     7     8   ar
    10     8     9   ar
    11     9    10   ar
    12    10    11   ar
    13    11     6   ar
    14    12    13   ar
    15    13    14   ar
    16    14    15   ar
    17    15    16   ar
    18    16    18   ar
    19    17    18    1
    20    17    21    1
    21    17    20    1
    22    17    19    1
    23    18    12   ar
    24    20    22    1
    25    23    26    1
    26    23    25    2
    27    23    24    2
    28    23    14    1
    29    26    32    1
    30    27    28   ar
    31    27     9    1
    32    28    29   ar
    33    29    30   ar
    34    30    31   ar
    35    31    32   ar
    36    32    27   ar
    37    34    35    1
    38    34    28    1
    39    35    36    1
    40    36    37    1
    41    37    38    1
    42    38     5   ar
    43     1    40    1
    44     3    41    1
    45     7    42    1
    46     8    43    1
    47    10    44    1
    48    11    45    1
    49    12    46    1
    50    13    47    1
    51    15    48    1
    52    16    49    1
    53    19    50    1
    54    19    51    1
    55    19    52    1
    56    20    53    1
    57    20    54    1
    58    21    55    1
    59    21    56    1
    60    21    57    1
    61    22    58    1
    62    26    59    1
    63    30    60    1
    64    33    61    1
    65    33    62    1
    66    33    63    1
    67    35    64    1
    68    35    65    1
    69    36    66    1
    70    36    67    1
@<TRIPOS>MOLECULE
*****
 67 70 0 0 0
SMALL
GASTEIGER

@<TRIPOS>ATOM
      1 C           3.5055   -3.8415   -4.1223 C.ar    1  LIG1        0.0483
      2 C           4.4878   -4.1429   -3.2099 C.ar    1  LIG1        0.0543
      3 C           5.0118   -3.0694   -2.5270 C.ar    1  LIG1        0.0483
      4 N           4.6085   -1.7928   -2.7140 N.ar    1  LIG1       -0.2022
      5 N           3.0690   -2.5866   -4.3556 N.ar    1  LIG1       -0.2022
      6 C           4.7748   -0.7151   -9.1497 C.ar    1  LIG1       -0.0504
      7 C           5.9004   -0.1090   -8.5862 C.ar    1  LIG1       -0.0583
      8 C           5.7682    1.0470   -7.8086 C.ar    1  LIG1       -0.0535
      9 C           4.5095    1.6257   -7.5702 C.ar    1  LIG1       -0.0094
     10 C           3.3925    1.0187   -8.1618 C.ar    1  LIG1       -0.0535
     11 C           3.5235   -0.1255   -8.9550 C.ar    1  LIG1       -0.0583
     12 C           1.5116    8.2675   -9.7272 C.ar    1  LIG1       -0.0561
     13 C           1.9936    6.9551   -9.6983 C.ar    1  LIG1       -0.0348
     14 C           1.5783    6.0888   -8.6866 C.ar    1  LIG1        0.1086
     15 C           0.6899    6.5288   -7.7089 C.ar    1  LIG1       -0.0348
     16 C           0.2101    7.8452   -7.7487 C.ar    1  LIG1       -0.0561
     17 C           0.0212   10.1712   -8.8749 C.3     1  LIG1        0.0132
     18 C           0.6016    8.7429   -8.7596 C.ar    1  LIG1       -0.0394
     19 C          -0.8793   10.2296  -10.1293 C.3     1  LIG1       -0.0537
     20 C          -0.7959   10.6463   -7.6337 C.3     1  LIG1        0.0533
     21 C           1.1708   11.1955   -9.0419 C.3     1  LIG1       -0.0537
     22 O          -2.0384    9.9682   -7.4671 O.3     1  LIG1       -0.3942
     23 S           2.0633    4.3752   -8.7647 S.O2    1  LIG1        0.0735
     24 O           1.9928    4.0110  -10.1651 O.2     1  LIG1       -0.1499
     25 O           1.3032    3.6503   -7.7660 O.2     1  LIG1       -0.1499
     26 N           3.7056    4.4273   -8.3431 N.pl3   1  LIG1       -0.1988
     27 C           4.3623    2.7621   -6.6449 C.ar    1  LIG1        0.0847
     28 C           4.6422    2.6480   -5.2879 C.ar    1  LIG1        0.2276
     29 N           4.5294    3.6488   -4.3901 N.ar    1  LIG1       -0.2008
     30 C           4.1310    4.8262   -4.8836 C.ar    1  LIG1        0.1219
     31 N           3.8633    5.0949   -6.1664 N.ar    1  LIG1       -0.2186
     32 C           3.9774    4.0474   -7.0010 C.ar    1  LIG1        0.1524
     33 C           4.9048   -1.9591   -9.9759 C.3     1  LIG1       -0.0397
     34 O           5.1613    1.4421   -4.8597 O.3     1  LIG1       -0.4724
     35 C           5.0775    1.1708   -3.4608 C.3     1  LIG1        0.1252
     36 C           3.6791    0.6897   -3.0653 C.3     1  LIG1        0.1267
     37 O           3.1878   -0.3473   -3.9174 O.3     1  LIG1       -0.4590
     38 C           3.6483   -1.6109   -3.6383 C.ar    1  LIG1        0.3180
     39 BR          5.0727   -5.9010   -2.9122 Br      1  LIG1       -0.0472
     40 H           3.0195   -4.6106   -4.7152 H       1  LIG1        0.0843
     41 H           5.7951   -3.1970   -1.7858 H       1  LIG1        0.0843
     42 H           6.8867   -0.5449   -8.7255 H       1  LIG1        0.0620
     43 H           6.6600    1.4714   -7.3517 H       1  LIG1        0.0624
     44 H           2.3914    1.4030   -7.9826 H       1  LIG1        0.0624
     45 H           2.6312   -0.5670   -9.3934 H       1  LIG1        0.0620
     46 H           1.8303    8.9049  -10.5498 H       1  LIG1        0.0621
     47 H           2.6533    6.6090  -10.4911 H       1  LIG1        0.0637
     48 H           0.3309    5.8532   -6.9350 H       1  LIG1        0.0637
     49 H          -0.5100    8.1335   -6.9857 H       1  LIG1        0.0621
     50 H          -0.3084   10.0633  -11.0501 H       1  LIG1        0.0239
     51 H          -1.3640   11.2083  -10.2214 H       1  LIG1        0.0239
     52 H          -1.6649    9.4655  -10.0976 H       1  LIG1        0.0239
     53 H          -1.0307   11.7150   -7.7106 H       1  LIG1        0.0566
     54 H          -0.2164   10.5159   -6.7126 H       1  LIG1        0.0566
     55 H           1.8747   11.1390   -8.2035 H       1  LIG1        0.0239
     56 H           0.7825   12.2203   -9.0842 H       1  LIG1        0.0239
     57 H           1.7401   11.0426   -9.9647 H       1  LIG1        0.0239
     58 H          -2.6242   10.2292   -8.1979 H       1  LIG1        0.2094
     59 H           4.0464    5.3802   -8.4566 H       1  LIG1        0.1753
     60 H           4.0275    5.6437   -4.1777 H       1  LIG1        0.1049
     61 H           5.7723   -2.5491   -9.6618 H       1  LIG1        0.0278
     62 H           5.0162   -1.7000  -11.0328 H       1  LIG1        0.0278
     63 H           4.0223   -2.5973   -9.8570 H       1  LIG1        0.0278
     64 H           5.3975    2.0229   -2.8496 H       1  LIG1        0.0731
     65 H           5.8117    0.3811   -3.2734 H       1  LIG1        0.0731
     66 H           2.9738    1.5203   -3.1807 H       1  LIG1        0.0732
     67 H           3.6364    0.3997   -2.0082 H       1  LIG1        0.0732
@<TRIPOS>BOND
     1     1     2   ar
     2     2     3   ar
     3     2    39    1
     4     3     4   ar
     5     4    38   ar
     6     5     1   ar
     7     6     7   ar
     8     6    33    1
     9     7     8   ar
    10     8     9   ar
    11     9    10   ar
    12    10    11   ar
    13    11     6   ar
    14    12    13   ar
    15    13    14   ar
    16    14    15   ar
    17    15    16   ar
    18    16    18   ar
    19    17    18    1
    20    17    21    1
    21    17    20    1
    22    17    19    1
    23    18    12   ar
    24    20    22    1
    25    23    26    1
    26    23    25    2
    27    23    24    2
    28    23    14    1
    29    26    32    1
    30    27    28   ar
    31    27     9    1
    32    28    29   ar
    33    29    30   ar
    34    30    31   ar
    35    31    32   ar
    36    32    27   ar
    37    34    35    1
    38    34    28    1
    39    35    36    1
    40    36    37    1
    41    37    38    1
    42    38     5   ar
    43     1    40    1
    44     3    41    1
    45     7    42    1
    46     8    43    1
    47    10    44    1
    48    11    45    1
    49    12    46    1
    50    13    47    1
    51    15    48    1
    52    16    49    1
    53    19    50    1
    54    19    51    1
    55    19    52    1
    56    20    53    1
    57    20    54    1
    58    21    55    1
    59    21    56    1
    60    21    57    1
    61    22    58    1
    62    26    59    1
    63    30    60    1
    64    33    61    1
    65    33    62    1
    66    33    63    1
    67    35    64    1
    68    35    65    1
    69    36    66    1
    70    36    67    1
@<TRIPOS>MOLECULE
*****
 67 70 0 0 0
SMALL
GASTEIGER

@<TRIPOS>ATOM
      1 C           9.9858    3.1868   -0.9256 C.ar    1  LIG1        0.0483
      2 C          10.1284    4.5532   -0.8682 C.ar    1  LIG1        0.0543
      3 C           9.3949    5.2644   -1.7881 C.ar    1  LIG1        0.0483
      4 N           8.5736    4.6873   -2.6900 N.ar    1  LIG1       -0.2022
      5 N           9.1821    2.5558   -1.8101 N.ar    1  LIG1       -0.2022
      6 C           5.7093    0.3346   -9.8069 C.ar    1  LIG1       -0.0504
      7 C           4.4301    0.8901   -9.7398 C.ar    1  LIG1       -0.0583
      8 C           4.0681    1.7090   -8.6656 C.ar    1  LIG1       -0.0535
      9 C           4.9747    2.0164   -7.6351 C.ar    1  LIG1       -0.0094
     10 C           6.2473    1.4241   -7.7034 C.ar    1  LIG1       -0.0535
     11 C           6.6069    0.5877   -8.7665 C.ar    1  LIG1       -0.0583
     12 C           5.2079    9.0440   -7.0835 C.ar    1  LIG1       -0.0561
     13 C           5.4035    7.6913   -7.3868 C.ar    1  LIG1       -0.0348
     14 C           4.7400    7.1306   -8.4734 C.ar    1  LIG1        0.1086
     15 C           3.8942    7.9089   -9.2616 C.ar    1  LIG1       -0.0348
     16 C           3.7020    9.2587   -8.9469 C.ar    1  LIG1       -0.0561
     17 C           4.1460   11.3568   -7.5294 C.3     1  LIG1        0.0132
     18 C           4.3678    9.8626   -7.8629 C.ar    1  LIG1       -0.0394
     19 C           2.8431   11.4710   -6.7127 C.3     1  LIG1       -0.0537
     20 C           5.3323   12.0071   -6.7492 C.3     1  LIG1        0.0533
     21 C           3.9890   12.1982   -8.8227 C.3     1  LIG1       -0.0537
     22 O           5.3980   11.6294   -5.3759 O.3     1  LIG1       -0.3942
     23 S           4.9938    5.4165   -8.8955 S.O2    1  LIG1        0.0735
     24 O           6.2644    5.0056   -8.3383 O.2     1  LIG1       -0.1499
     25 O           4.7092    5.3031  -10.3105 O.2     1  LIG1       -0.1499
     26 N           3.6977    4.6850   -8.0725 N.pl3   1  LIG1       -0.1988
     27 C           4.6265    2.9648   -6.5538 C.ar    1  LIG1        0.0847
     28 C           4.8415    2.7250   -5.2007 C.ar    1  LIG1        0.2276
     29 N           4.5161    3.5878   -4.2137 N.ar    1  LIG1       -0.2008
     30 C           3.9699    4.7461   -4.5892 C.ar    1  LIG1        0.1219
     31 N           3.6834    5.1039   -5.8423 N.ar    1  LIG1       -0.2186
     32 C           4.0273    4.2031   -6.7760 C.ar    1  LIG1        0.1524
     33 C           6.1189   -0.5217  -10.9665 C.3     1  LIG1       -0.0397
     34 O           5.3434    1.4870   -4.8422 O.3     1  LIG1       -0.4724
     35 C           5.7425    1.3273   -3.4771 C.3     1  LIG1        0.1252
     36 C           7.2603    1.4492   -3.3368 C.3     1  LIG1        0.1267
     37 O           7.6468    2.8011   -3.5808 O.3     1  LIG1       -0.4590
     38 C           8.4960    3.3484   -2.6523 C.ar    1  LIG1        0.3180
     39 BR         11.2433    5.3924    0.3864 Br      1  LIG1       -0.0472
     40 H          10.5212    2.5306   -0.2452 H       1  LIG1        0.0843
     41 H           9.4364    6.3481   -1.8379 H       1  LIG1        0.0843
     42 H           3.7088    0.7107  -10.5339 H       1  LIG1        0.0620
     43 H           3.0651    2.1322   -8.6620 H       1  LIG1        0.0624
     44 H           6.9917    1.6332   -6.9370 H       1  LIG1        0.0624
     45 H           7.6057    0.1574   -8.7876 H       1  LIG1        0.0620
     46 H           5.7358    9.4394   -6.2168 H       1  LIG1        0.0621
     47 H           6.0679    7.0914   -6.7671 H       1  LIG1        0.0637
     48 H           3.3838    7.4818  -10.1228 H       1  LIG1        0.0637
     49 H           3.0183    9.8225   -9.5756 H       1  LIG1        0.0621
     50 H           1.9758   11.1289   -7.2896 H       1  LIG1        0.0239
     51 H           2.6535   12.5096   -6.4180 H       1  LIG1        0.0239
     52 H           2.8804   10.8634   -5.8010 H       1  LIG1        0.0239
     53 H           5.2562   13.1007   -6.7639 H       1  LIG1        0.0566
     54 H           6.2903   11.7496   -7.2164 H       1  LIG1        0.0566
     55 H           4.8430   12.0558   -9.4949 H       1  LIG1        0.0239
     56 H           3.9188   13.2680   -8.5930 H       1  LIG1        0.0239
     57 H           3.0774   11.9494   -9.3770 H       1  LIG1        0.0239
     58 H           4.6565   12.0569   -4.9152 H       1  LIG1        0.2094
     59 H           2.9518    5.3707   -7.9488 H       1  LIG1        0.1753
     60 H           3.7309    5.4552   -3.8043 H       1  LIG1        0.1049
     61 H           5.3944   -0.4589  -11.7853 H       1  LIG1        0.0278
     62 H           6.1977   -1.5672  -10.6553 H       1  LIG1        0.0278
     63 H           7.0854   -0.1886  -11.3605 H       1  LIG1        0.0278
     64 H           5.4507    0.3102   -3.1938 H       1  LIG1        0.0731
     65 H           5.2302    1.9979   -2.7787 H       1  LIG1        0.0731
     66 H           7.7604    0.8235   -4.0849 H       1  LIG1        0.0732
     67 H           7.5277    1.0814   -2.3399 H       1  LIG1        0.0732
@<TRIPOS>BOND
     1     1     2   ar
     2     2     3   ar
     3     2    39    1
     4     3     4   ar
     5     4    38   ar
     6     5     1   ar
     7     6     7   ar
     8     6    33    1
     9     7     8   ar
    10     8     9   ar
    11     9    10   ar
    12    10    11   ar
    13    11     6   ar
    14    12    13   ar
    15    13    14   ar
    16    14    15   ar
    17    15    16   ar
    18    16    18   ar
    19    17    18    1
    20    17    21    1
    21    17    20    1
    22    17    19    1
    23    18    12   ar
    24    20    22    1
    25    23    26    1
    26    23    25    2
    27    23    24    2
    28    23    14    1
    29    26    32    1
    30    27    28   ar
    31    27     9    1
    32    28    29   ar
    33    29    30   ar
    34    30    31   ar
    35    31    32   ar
    36    32    27   ar
    37    34    35    1
    38    34    28    1
    39    35    36    1
    40    36    37    1
    41    37    38    1
    42    38     5   ar
    43     1    40    1
    44     3    41    1
    45     7    42    1
    46     8    43    1
    47    10    44    1
    48    11    45    1
    49    12    46    1
    50    13    47    1
    51    15    48    1
    52    16    49    1
    53    19    50    1
    54    19    51    1
    55    19    52    1
    56    20    53    1
    57    20    54    1
    58    21    55    1
    59    21    56    1
    60    21    57    1
    61    22    58    1
    62    26    59    1
    63    30    60    1
    64    33    61    1
    65    33    62    1
    66    33    63    1
    67    35    64    1
    68    35    65    1
    69    36    66    1
    70    36    67    1
@<TRIPOS>MOLECULE
*****
 67 70 0 0 0
SMALL
GASTEIGER

@<TRIPOS>ATOM
      1 C          11.3424    1.5501   -3.5399 C.ar    1  LIG1        0.0483
      2 C          12.0366    2.7341   -3.4548 C.ar    1  LIG1        0.0543
      3 C          11.2657    3.8727   -3.4293 C.ar    1  LIG1        0.0483
      4 N           9.9169    3.8615   -3.4877 N.ar    1  LIG1       -0.2022
      5 N           9.9947    1.4778   -3.5916 N.ar    1  LIG1       -0.2022
      6 C           5.8784   -0.0532   -9.3422 C.ar    1  LIG1       -0.0504
      7 C           6.1660    1.2949   -9.5714 C.ar    1  LIG1       -0.0583
      8 C           5.7192    2.2821   -8.6824 C.ar    1  LIG1       -0.0535
      9 C           4.9704    1.9547   -7.5389 C.ar    1  LIG1       -0.0094
     10 C           4.6556    0.5956   -7.3504 C.ar    1  LIG1       -0.0535
     11 C           5.1173   -0.3954   -8.2238 C.ar    1  LIG1       -0.0583
     12 C           2.8153    5.5350  -12.4136 C.ar    1  LIG1       -0.0561
     13 C           2.8653    4.7955  -11.2250 C.ar    1  LIG1       -0.0348
     14 C           2.0898    5.1904  -10.1375 C.ar    1  LIG1        0.1086
     15 C           1.2632    6.3084  -10.2319 C.ar    1  LIG1       -0.0348
     16 C           1.2231    7.0418  -11.4231 C.ar    1  LIG1       -0.0561
     17 C           1.9453    7.5041  -13.8483 C.3     1  LIG1        0.0132
     18 C           1.9884    6.6681  -12.5473 C.ar    1  LIG1       -0.0394
     19 C           2.8225    8.7562  -13.6406 C.3     1  LIG1       -0.0537
     20 C           2.4186    6.7261  -15.1165 C.3     1  LIG1        0.0533
     21 C           0.4979    7.9654  -14.1590 C.3     1  LIG1       -0.0537
     22 O           3.8294    6.5268  -15.1772 O.3     1  LIG1       -0.3942
     23 S           2.1916    4.2797   -8.6106 S.O2    1  LIG1        0.0735
     24 O           2.1551    2.8748   -8.9369 O.2     1  LIG1       -0.1499
     25 O           1.2379    4.8699   -7.6927 O.2     1  LIG1       -0.1499
     26 N           3.7556    4.7208   -8.1156 N.pl3   1  LIG1       -0.1988
     27 C           4.6003    2.9782   -6.5329 C.ar    1  LIG1        0.0847
     28 C           4.8309    2.8114   -5.1641 C.ar    1  LIG1        0.2276
     29 N           4.5495    3.7294   -4.2167 N.ar    1  LIG1       -0.2008
     30 C           4.0674    4.8930   -4.6490 C.ar    1  LIG1        0.1219
     31 N           3.8381    5.2116   -5.9221 N.ar    1  LIG1       -0.2186
     32 C           4.0899    4.2393   -6.8176 C.ar    1  LIG1        0.1524
     33 C           6.4408   -1.1230  -10.2300 C.3     1  LIG1       -0.0397
     34 O           5.3878    1.6165   -4.7524 O.3     1  LIG1       -0.4724
     35 C           5.8579    1.5290   -3.4040 C.3     1  LIG1        0.1252
     36 C           7.3793    1.3889   -3.4089 C.3     1  LIG1        0.1267
     37 O           7.9642    2.6734   -3.6350 O.3     1  LIG1       -0.4590
     38 C           9.3389    2.6528   -3.5653 C.ar    1  LIG1        0.3180
     39 BR         13.9108    2.7913   -3.3784 Br      1  LIG1       -0.0472
     40 H          11.8530    0.5920   -3.5715 H       1  LIG1        0.0843
     41 H          11.7108    4.8609   -3.3602 H       1  LIG1        0.0843
     42 H           6.7589    1.5889  -10.4344 H       1  LIG1        0.0620
     43 H           5.9944    3.3150   -8.8841 H       1  LIG1        0.0624
     44 H           4.0647    0.2830   -6.4911 H       1  LIG1        0.0624
     45 H           4.8878   -1.4371   -8.0110 H       1  LIG1        0.0620
     46 H           3.4500    5.2019  -13.2320 H       1  LIG1        0.0621
     47 H           3.5124    3.9227  -11.1580 H       1  LIG1        0.0637
     48 H           0.6513    6.6239   -9.3894 H       1  LIG1        0.0637
     49 H           0.5828    7.9208  -11.4475 H       1  LIG1        0.0621
     50 H           2.4339    9.3923  -12.8365 H       1  LIG1        0.0239
     51 H           2.8605    9.3651  -14.5513 H       1  LIG1        0.0239
     52 H           3.8509    8.4903  -13.3699 H       1  LIG1        0.0239
     53 H           2.1436    7.2656  -16.0308 H       1  LIG1        0.0566
     54 H           1.9363    5.7433  -15.1715 H       1  LIG1        0.0566
     55 H          -0.1883    7.1121  -14.2085 H       1  LIG1        0.0239
     56 H           0.4485    8.4904  -15.1207 H       1  LIG1        0.0239
     57 H           0.1105    8.6664  -13.4122 H       1  LIG1        0.0239
     58 H           4.2422    7.3855  -15.3711 H       1  LIG1        0.2094
     59 H           3.7666    5.7386   -8.0387 H       1  LIG1        0.1753
     60 H           3.8456    5.6458   -3.9006 H       1  LIG1        0.1049
     61 H           6.6370   -0.7400  -11.2366 H       1  LIG1        0.0278
     62 H           5.7394   -1.9583  -10.3279 H       1  LIG1        0.0278
     63 H           7.3796   -1.4986   -9.8096 H       1  LIG1        0.0278
     64 H           5.4221    0.6122   -2.9919 H       1  LIG1        0.0731
     65 H           5.5497    2.3536   -2.7540 H       1  LIG1        0.0731
     66 H           7.6790    0.6943   -4.2036 H       1  LIG1        0.0732
     67 H           7.6969    1.0083   -2.4300 H       1  LIG1        0.0732
@<TRIPOS>BOND
     1     1     2   ar
     2     2     3   ar
     3     2    39    1
     4     3     4   ar
     5     4    38   ar
     6     5     1   ar
     7     6     7   ar
     8     6    33    1
     9     7     8   ar
    10     8     9   ar
    11     9    10   ar
    12    10    11   ar
    13    11     6   ar
    14    12    13   ar
    15    13    14   ar
    16    14    15   ar
    17    15    16   ar
    18    16    18   ar
    19    17    18    1
    20    17    21    1
    21    17    20    1
    22    17    19    1
    23    18    12   ar
    24    20    22    1
    25    23    26    1
    26    23    25    2
    27    23    24    2
    28    23    14    1
    29    26    32    1
    30    27    28   ar
    31    27     9    1
    32    28    29   ar
    33    29    30   ar
    34    30    31   ar
    35    31    32   ar
    36    32    27   ar
    37    34    35    1
    38    34    28    1
    39    35    36    1
    40    36    37    1
    41    37    38    1
    42    38     5   ar
    43     1    40    1
    44     3    41    1
    45     7    42    1
    46     8    43    1
    47    10    44    1
    48    11    45    1
    49    12    46    1
    50    13    47    1
    51    15    48    1
    52    16    49    1
    53    19    50    1
    54    19    51    1
    55    19    52    1
    56    20    53    1
    57    20    54    1
    58    21    55    1
    59    21    56    1
    60    21    57    1
    61    22    58    1
    62    26    59    1
    63    30    60    1
    64    33    61    1
    65    33    62    1
    66    33    63    1
    67    35    64    1
    68    35    65    1
    69    36    66    1
    70    36    67    1
@<TRIPOS>MOLECULE
*****
 67 70 0 0 0
SMALL
GASTEIGER

@<TRIPOS>ATOM
      1 C          10.8069    3.6153   -2.6978 C.ar    1  LIG1        0.0483
      2 C          10.3256    4.1663   -1.5336 C.ar    1  LIG1        0.0543
      3 C           9.1299    3.6555   -1.0861 C.ar    1  LIG1        0.0483
      4 N           8.4487    2.6815   -1.7263 N.ar    1  LIG1       -0.2022
      5 N          10.1672    2.6425   -3.3811 N.ar    1  LIG1       -0.2022
      6 C           5.9439   -0.3101   -9.2628 C.ar    1  LIG1       -0.0504
      7 C           6.4053    0.9847   -9.5133 C.ar    1  LIG1       -0.0583
      8 C           6.0359    2.0503   -8.6809 C.ar    1  LIG1       -0.0535
      9 C           5.1786    1.8618   -7.5891 C.ar    1  LIG1       -0.0094
     10 C           4.7268    0.5488   -7.3491 C.ar    1  LIG1       -0.0535
     11 C           5.1139   -0.5229   -8.1616 C.ar    1  LIG1       -0.0583
     12 C           4.0288    9.3552   -8.6507 C.ar    1  LIG1       -0.0561
     13 C           4.5676    8.0780   -8.4395 C.ar    1  LIG1       -0.0348
     14 C           4.1410    7.0110   -9.2242 C.ar    1  LIG1        0.1086
     15 C           3.1758    7.2085  -10.2116 C.ar    1  LIG1       -0.0348
     16 C           2.6429    8.4856  -10.4163 C.ar    1  LIG1       -0.0561
     17 C           2.5331   11.0090   -9.9655 C.3     1  LIG1        0.0132
     18 C           3.0601    9.5898   -9.6466 C.ar    1  LIG1       -0.0394
     19 C           3.2553   11.5016  -11.2386 C.3     1  LIG1       -0.0537
     20 C           1.0004   11.0262  -10.2358 C.3     1  LIG1        0.0533
     21 C           2.8108   12.0321   -8.8384 C.3     1  LIG1       -0.0537
     22 O           0.2454   10.6519   -9.0858 O.3     1  LIG1       -0.3942
     23 S           4.9560    5.4268   -9.1328 S.O2    1  LIG1        0.0735
     24 O           6.1015    5.5693   -8.2579 O.2     1  LIG1       -0.1499
     25 O           5.1150    4.9856  -10.5017 O.2     1  LIG1       -0.1499
     26 N           3.7776    4.4298   -8.4148 N.pl3   1  LIG1       -0.1988
     27 C           4.7779    2.9618   -6.6855 C.ar    1  LIG1        0.0847
     28 C           4.9903    2.9136   -5.3114 C.ar    1  LIG1        0.2276
     29 N           4.5154    3.8172   -4.4261 N.ar    1  LIG1       -0.2008
     30 C           3.8270    4.8379   -4.9415 C.ar    1  LIG1        0.1219
     31 N           3.5704    5.0357   -6.2367 N.ar    1  LIG1       -0.2186
     32 C           4.0665    4.0966   -7.0628 C.ar    1  LIG1        0.1524
     33 C           6.3986   -1.4596  -10.1122 C.3     1  LIG1       -0.0397
     34 O           5.7384    1.8551   -4.8236 O.3     1  LIG1       -0.4724
     35 C           5.9881    1.8952   -3.4151 C.3     1  LIG1        0.1252
     36 C           7.0777    0.8695   -3.0890 C.3     1  LIG1        0.1267
     37 O           8.3569    1.2578   -3.6028 O.3     1  LIG1       -0.4590
     38 C           9.0031    2.2223   -2.8637 C.ar    1  LIG1        0.3180
     39 BR         11.2376    5.5251   -0.6151 Br      1  LIG1       -0.0472
     40 H          11.7435    3.9419   -3.1396 H       1  LIG1        0.0843
     41 H           8.6603    4.0199   -0.1775 H       1  LIG1        0.0843
     42 H           7.0704    1.1791  -10.3517 H       1  LIG1        0.0620
     43 H           6.4617    3.0258   -8.8958 H       1  LIG1        0.0624
     44 H           4.0783    0.3405   -6.5001 H       1  LIG1        0.0624
     45 H           4.7668   -1.5249   -7.9205 H       1  LIG1        0.0620
     46 H           4.4184   10.1649   -8.0410 H       1  LIG1        0.0621
     47 H           5.3480    7.9436   -7.6925 H       1  LIG1        0.0637
     48 H           2.8689    6.3900  -10.8614 H       1  LIG1        0.0637
     49 H           1.9297    8.6049  -11.2294 H       1  LIG1        0.0621
     50 H           4.3424   11.5221  -11.0967 H       1  LIG1        0.0239
     51 H           2.9371   12.5155  -11.5081 H       1  LIG1        0.0239
     52 H           3.0497   10.8538  -12.0985 H       1  LIG1        0.0239
     53 H           0.7070   10.3741  -11.0643 H       1  LIG1        0.0566
     54 H           0.6763   12.0364  -10.5136 H       1  LIG1        0.0566
     55 H           2.4086   11.6947   -7.8762 H       1  LIG1        0.0239
     56 H           2.3512   13.0023   -9.0668 H       1  LIG1        0.0239
     57 H           3.8833   12.2176   -8.7104 H       1  LIG1        0.0239
     58 H           0.5777    9.7857   -8.7909 H       1  LIG1        0.2094
     59 H           2.8813    4.9136   -8.4166 H       1  LIG1        0.1753
     60 H           3.4430    5.5734   -4.2427 H       1  LIG1        0.1049
     61 H           6.5633   -1.1399  -11.1456 H       1  LIG1        0.0278
     62 H           5.6459   -2.2529  -10.1322 H       1  LIG1        0.0278
     63 H           7.3332   -1.8694   -9.7149 H       1  LIG1        0.0278
     64 H           5.0668    1.6197   -2.8889 H       1  LIG1        0.0731
     65 H           6.3070    2.8951   -3.1085 H       1  LIG1        0.0731
     66 H           6.8345   -0.0788   -3.5823 H       1  LIG1        0.0732
     67 H           7.1305    0.6577   -2.0146 H       1  LIG1        0.0732
@<TRIPOS>BOND
     1     1     2   ar
     2     2     3   ar
     3     2    39    1
     4     3     4   ar
     5     4    38   ar
     6     5     1   ar
     7     6     7   ar
     8     6    33    1
     9     7     8   ar
    10     8     9   ar
    11     9    10   ar
    12    10    11   ar
    13    11     6   ar
    14    12    13   ar
    15    13    14   ar
    16    14    15   ar
    17    15    16   ar
    18    16    18   ar
    19    17    18    1
    20    17    21    1
    21    17    20    1
    22    17    19    1
    23    18    12   ar
    24    20    22    1
    25    23    26    1
    26    23    25    2
    27    23    24    2
    28    23    14    1
    29    26    32    1
    30    27    28   ar
    31    27     9    1
    32    28    29   ar
    33    29    30   ar
    34    30    31   ar
    35    31    32   ar
    36    32    27   ar
    37    34    35    1
    38    34    28    1
    39    35    36    1
    40    36    37    1
    41    37    38    1
    42    38     5   ar
    43     1    40    1
    44     3    41    1
    45     7    42    1
    46     8    43    1
    47    10    44    1
    48    11    45    1
    49    12    46    1
    50    13    47    1
    51    15    48    1
    52    16    49    1
    53    19    50    1
    54    19    51    1
    55    19    52    1
    56    20    53    1
    57    20    54    1
    58    21    55    1
    59    21    56    1
    60    21    57    1
    61    22    58    1
    62    26    59    1
    63    30    60    1
    64    33    61    1
    65    33    62    1
    66    33    63    1
    67    35    64    1
    68    35    65    1
    69    36    66    1
    70    36    67    1
@<TRIPOS>MOLECULE
*****
 67 70 0 0 0
SMALL
GASTEIGER

@<TRIPOS>ATOM
      1 C           3.5295   -3.9002   -4.1246 C.ar    1  LIG1        0.0483
      2 C           4.5170   -4.1978   -3.2159 C.ar    1  LIG1        0.0543
      3 C           5.0588   -3.1199   -2.5546 C.ar    1  LIG1        0.0483
      4 N           4.6662   -1.8429   -2.7577 N.ar    1  LIG1       -0.2022
      5 N           3.1022   -2.6450   -4.3726 N.ar    1  LIG1       -0.2022
      6 C           5.9826    0.1065   -9.7433 C.ar    1  LIG1       -0.0504
      7 C           4.8214    0.8548   -9.9362 C.ar    1  LIG1       -0.0583
      8 C           4.3753    1.7472   -8.9521 C.ar    1  LIG1       -0.0535
      9 C           5.0808    1.9477   -7.7514 C.ar    1  LIG1       -0.0094
     10 C           6.2540    1.1864   -7.5856 C.ar    1  LIG1       -0.0535
     11 C           6.6856    0.2652   -8.5498 C.ar    1  LIG1       -0.0583
     12 C           3.4356    9.1215   -8.4644 C.ar    1  LIG1       -0.0561
     13 C           4.0302    7.8871   -8.1802 C.ar    1  LIG1       -0.0348
     14 C           4.4311    7.0605   -9.2280 C.ar    1  LIG1        0.1086
     15 C           4.2695    7.4709  -10.5489 C.ar    1  LIG1       -0.0348
     16 C           3.6840    8.7118  -10.8227 C.ar    1  LIG1       -0.0561
     17 C           2.6033   10.9391  -10.0857 C.3     1  LIG1        0.0132
     18 C           3.2305    9.5565   -9.7904 C.ar    1  LIG1       -0.0394
     19 C           3.7364   11.9841  -10.0193 C.3     1  LIG1       -0.0537
     20 C           1.9385   11.0460  -11.4902 C.3     1  LIG1        0.0533
     21 C           1.5201   11.3175   -9.0456 C.3     1  LIG1       -0.0537
     22 O           0.8058   10.1911  -11.6248 O.3     1  LIG1       -0.3942
     23 S           5.1470    5.4661   -8.8662 S.O2    1  LIG1        0.0735
     24 O           6.1355    5.6714   -7.8280 O.2     1  LIG1       -0.1499
     25 O           5.4897    4.8629  -10.1368 O.2     1  LIG1       -0.1499
     26 N           3.7884    4.6504   -8.2630 N.pl3   1  LIG1       -0.1988
     27 C           4.5981    2.8914   -6.7050 C.ar    1  LIG1        0.0847
     28 C           4.6558    2.6344   -5.3349 C.ar    1  LIG1        0.2276
     29 N           4.2031    3.4652   -4.3678 N.ar    1  LIG1       -0.2008
     30 C           3.6395    4.5999   -4.7817 C.ar    1  LIG1        0.1219
     31 N           3.4772    4.9698   -6.0514 N.ar    1  LIG1       -0.2186
     32 C           3.9721    4.1093   -6.9622 C.ar    1  LIG1        0.1524
     33 C           6.4283   -0.8904  -10.7702 C.3     1  LIG1       -0.0397
     34 O           5.1835    1.4255   -4.9295 O.3     1  LIG1       -0.4724
     35 C           5.1212    1.1299   -3.5313 C.3     1  LIG1        0.1252
     36 C           3.7354    0.6318   -3.1095 C.3     1  LIG1        0.1267
     37 O           3.2422   -0.4031   -3.9624 O.3     1  LIG1       -0.4590
     38 C           3.6969   -1.6661   -3.6731 C.ar    1  LIG1        0.3180
     39 BR          5.0846   -5.9573   -2.8956 Br      1  LIG1       -0.0472
     40 H           3.0312   -4.6733   -4.7019 H       1  LIG1        0.0843
     41 H           5.8478   -3.2438   -1.8186 H       1  LIG1        0.0843
     42 H           4.2477    0.7520  -10.8550 H       1  LIG1        0.0620
     43 H           3.4517    2.2849   -9.1522 H       1  LIG1        0.0624
     44 H           6.8588    1.2884   -6.6864 H       1  LIG1        0.0624
     45 H           7.5795   -0.3228   -8.3562 H       1  LIG1        0.0620
     46 H           3.1500    9.7453   -7.6204 H       1  LIG1        0.0621
     47 H           4.1803    7.5851   -7.1454 H       1  LIG1        0.0637
     48 H           4.6010    6.8420  -11.3730 H       1  LIG1        0.0637
     49 H           3.6057    8.9990  -11.8683 H       1  LIG1        0.0621
     50 H           4.2191   11.9935   -9.0349 H       1  LIG1        0.0239
     51 H           3.3558   12.9944  -10.2087 H       1  LIG1        0.0239
     52 H           4.5141   11.7765  -10.7638 H       1  LIG1        0.0239
     53 H           2.6356   10.8323  -12.3064 H       1  LIG1        0.0566
     54 H           1.5798   12.0683  -11.6602 H       1  LIG1        0.0566
     55 H           0.7615   10.5320   -8.9518 H       1  LIG1        0.0239
     56 H           1.0075   12.2437   -9.3321 H       1  LIG1        0.0239
     57 H           1.9425   11.4954   -8.0510 H       1  LIG1        0.0239
     58 H           1.0771    9.2940  -11.3646 H       1  LIG1        0.2094
     59 H           2.9813    5.2706   -8.2334 H       1  LIG1        0.1753
     60 H           3.2769    5.2780   -4.0169 H       1  LIG1        0.1049
     61 H           6.1535   -0.5629  -11.7785 H       1  LIG1        0.0278
     62 H           5.9637   -1.8621  -10.5758 H       1  LIG1        0.0278
     63 H           7.5168   -1.0095  -10.7533 H       1  LIG1        0.0278
     64 H           5.4495    1.9782   -2.9176 H       1  LIG1        0.0731
     65 H           5.8642    0.3431   -3.3676 H       1  LIG1        0.0731
     66 H           3.0119    1.4488   -3.1977 H       1  LIG1        0.0732
     67 H           3.7195    0.3336   -2.0535 H       1  LIG1        0.0732
@<TRIPOS>BOND
     1     1     2   ar
     2     2     3   ar
     3     2    39    1
     4     3     4   ar
     5     4    38   ar
     6     5     1   ar
     7     6     7   ar
     8     6    33    1
     9     7     8   ar
    10     8     9   ar
    11     9    10   ar
    12    10    11   ar
    13    11     6   ar
    14    12    13   ar
    15    13    14   ar
    16    14    15   ar
    17    15    16   ar
    18    16    18   ar
    19    17    18    1
    20    17    21    1
    21    17    20    1
    22    17    19    1
    23    18    12   ar
    24    20    22    1
    25    23    26    1
    26    23    25    2
    27    23    24    2
    28    23    14    1
    29    26    32    1
    30    27    28   ar
    31    27     9    1
    32    28    29   ar
    33    29    30   ar
    34    30    31   ar
    35    31    32   ar
    36    32    27   ar
    37    34    35    1
    38    34    28    1
    39    35    36    1
    40    36    37    1
    41    37    38    1
    42    38     5   ar
    43     1    40    1
    44     3    41    1
    45     7    42    1
    46     8    43    1
    47    10    44    1
    48    11    45    1
    49    12    46    1
    50    13    47    1
    51    15    48    1
    52    16    49    1
    53    19    50    1
    54    19    51    1
    55    19    52    1
    56    20    53    1
    57    20    54    1
    58    21    55    1
    59    21    56    1
    60    21    57    1
    61    22    58    1
    62    26    59    1
    63    30    60    1
    64    33    61    1
    65    33    62    1
    66    33    63    1
    67    35    64    1
    68    35    65    1
    69    36    66    1
    70    36    67    1
@<TRIPOS>MOLECULE
*****
 67 70 0 0 0
SMALL
GASTEIGER

@<TRIPOS>ATOM
      1 C           1.5454   -2.4230   -1.8746 C.ar    1  LIG1        0.0483
      2 C           0.7374   -3.0141   -2.8184 C.ar    1  LIG1        0.0543
      3 C           1.0280   -2.7051   -4.1269 C.ar    1  LIG1        0.0483
      4 N           2.0381   -1.8879   -4.4916 N.ar    1  LIG1       -0.2022
      5 N           2.5630   -1.5893   -2.1798 N.ar    1  LIG1       -0.2022
      6 C           4.7359   -0.4554   -9.2659 C.ar    1  LIG1       -0.0504
      7 C           5.8721   -0.0477   -8.5629 C.ar    1  LIG1       -0.0583
      8 C           5.8238    1.0689   -7.7203 C.ar    1  LIG1       -0.0535
      9 C           4.6401    1.8061   -7.5533 C.ar    1  LIG1       -0.0094
     10 C           3.5212    1.4138   -8.3091 C.ar    1  LIG1       -0.0535
     11 C           3.5690    0.3043   -9.1589 C.ar    1  LIG1       -0.0583
     12 C           4.5528    3.4469  -12.4336 C.ar    1  LIG1       -0.0561
     13 C           4.3078    4.2404  -11.3088 C.ar    1  LIG1       -0.0348
     14 C           5.2494    4.2863  -10.2831 C.ar    1  LIG1        0.1086
     15 C           6.4348    3.5631  -10.3847 C.ar    1  LIG1       -0.0348
     16 C           6.6684    2.7681  -11.5111 C.ar    1  LIG1       -0.0561
     17 C           5.9878    1.8330  -13.8211 C.3     1  LIG1        0.0132
     18 C           5.7328    2.6827  -12.5574 C.ar    1  LIG1       -0.0394
     19 C           6.2905    2.7904  -14.9932 C.3     1  LIG1       -0.0537
     20 C           7.1453    0.7955  -13.6778 C.3     1  LIG1        0.0533
     21 C           4.7243    1.0054  -14.1667 C.3     1  LIG1       -0.0537
     22 O           8.4461    1.3783  -13.6429 O.3     1  LIG1       -0.3942
     23 S           4.9796    5.3556   -8.8954 S.O2    1  LIG1        0.0735
     24 O           4.4613    6.6003   -9.4298 O.2     1  LIG1       -0.1499
     25 O           6.1640    5.3292   -8.0644 O.2     1  LIG1       -0.1499
     26 N           3.6759    4.6124   -8.1084 N.pl3   1  LIG1       -0.1988
     27 C           4.5290    2.8874   -6.5543 C.ar    1  LIG1        0.0847
     28 C           4.8387    2.7115   -5.2085 C.ar    1  LIG1        0.2276
     29 N           4.6322    3.6310   -4.2418 N.ar    1  LIG1       -0.2008
     30 C           4.0931    4.7856   -4.6413 C.ar    1  LIG1        0.1219
     31 N           3.7387    5.0923   -5.8906 N.ar    1  LIG1       -0.2186
     32 C           3.9860    4.1394   -6.8059 C.ar    1  LIG1        0.1524
     33 C           4.7642   -1.6766  -10.1349 C.3     1  LIG1       -0.0397
     34 O           5.4202    1.5145   -4.8415 O.3     1  LIG1       -0.4724
     35 C           5.3602    1.1817   -3.4525 C.3     1  LIG1        0.1252
     36 C           4.0145    0.5530   -3.0908 C.3     1  LIG1        0.1267
     37 O           3.8567   -0.6337   -3.8741 O.3     1  LIG1       -0.4590
     38 C           2.7563   -1.3580   -3.4901 C.ar    1  LIG1        0.3180
     39 BR         -0.6620   -4.1739   -2.3512 Br      1  LIG1       -0.0472
     40 H           1.4092   -2.6074   -0.8131 H       1  LIG1        0.0843
     41 H           0.4544   -3.1173   -4.9518 H       1  LIG1        0.0843
     42 H           6.7982   -0.6131   -8.6379 H       1  LIG1        0.0620
     43 H           6.7193    1.3344   -7.1608 H       1  LIG1        0.0624
     44 H           2.5777    1.9476   -8.2147 H       1  LIG1        0.0624
     45 H           2.6758    0.0185   -9.7092 H       1  LIG1        0.0620
     46 H           3.8071    3.4510  -13.2252 H       1  LIG1        0.0621
     47 H           3.3948    4.8277  -11.2508 H       1  LIG1        0.0637
     48 H           7.1905    3.6139   -9.6041 H       1  LIG1        0.0637
     49 H           7.6131    2.2307  -11.5495 H       1  LIG1        0.0621
     50 H           5.4351    3.4370  -15.2211 H       1  LIG1        0.0239
     51 H           6.5299    2.2325  -15.9057 H       1  LIG1        0.0239
     52 H           7.1376    3.4491  -14.7683 H       1  LIG1        0.0239
     53 H           7.1432    0.0937  -14.5204 H       1  LIG1        0.0566
     54 H           7.0208    0.1971  -12.7677 H       1  LIG1        0.0566
     55 H           4.4198    0.3780  -13.3209 H       1  LIG1        0.0239
     56 H           4.9062    0.3467  -15.0242 H       1  LIG1        0.0239
     57 H           3.8707    1.6347  -14.4395 H       1  LIG1        0.0239
     58 H           8.6267    1.7627  -14.5172 H       1  LIG1        0.2094
     59 H           2.9389    5.3150   -8.0483 H       1  LIG1        0.1753
     60 H           3.9296    5.5427   -3.8820 H       1  LIG1        0.1049
     61 H           5.5855   -2.3440   -9.8530 H       1  LIG1        0.0278
     62 H           4.8860   -1.3924  -11.1839 H       1  LIG1        0.0278
     63 H           3.8350   -2.2464  -10.0229 H       1  LIG1        0.0278
     64 H           5.6034    2.0311   -2.8042 H       1  LIG1        0.0731
     65 H           6.1483    0.4363   -3.2932 H       1  LIG1        0.0731
     66 H           3.1915    1.2404   -3.3184 H       1  LIG1        0.0732
     67 H           4.0233    0.3315   -2.0175 H       1  LIG1        0.0732
@<TRIPOS>BOND
     1     1     2   ar
     2     2     3   ar
     3     2    39    1
     4     3     4   ar
     5     4    38   ar
     6     5     1   ar
     7     6     7   ar
     8     6    33    1
     9     7     8   ar
    10     8     9   ar
    11     9    10   ar
    12    10    11   ar
    13    11     6   ar
    14    12    13   ar
    15    13    14   ar
    16    14    15   ar
    17    15    16   ar
    18    16    18   ar
    19    17    18    1
    20    17    21    1
    21    17    20    1
    22    17    19    1
    23    18    12   ar
    24    20    22    1
    25    23    26    1
    26    23    25    2
    27    23    24    2
    28    23    14    1
    29    26    32    1
    30    27    28   ar
    31    27     9    1
    32    28    29   ar
    33    29    30   ar
    34    30    31   ar
    35    31    32   ar
    36    32    27   ar
    37    34    35    1
    38    34    28    1
    39    35    36    1
    40    36    37    1
    41    37    38    1
    42    38     5   ar
    43     1    40    1
    44     3    41    1
    45     7    42    1
    46     8    43    1
    47    10    44    1
    48    11    45    1
    49    12    46    1
    50    13    47    1
    51    15    48    1
    52    16    49    1
    53    19    50    1
    54    19    51    1
    55    19    52    1
    56    20    53    1
    57    20    54    1
    58    21    55    1
    59    21    56    1
    60    21    57    1
    61    22    58    1
    62    26    59    1
    63    30    60    1
    64    33    61    1
    65    33    62    1
    66    33    63    1
    67    35    64    1
    68    35    65    1
    69    36    66    1
    70    36    67    1
@<TRIPOS>MOLECULE
*****
 67 70 0 0 0
SMALL
GASTEIGER

@<TRIPOS>ATOM
      1 C           9.0689   -1.2457   -1.8107 C.ar    1  LIG1        0.0483
      2 C           9.5210   -2.5161   -2.0833 C.ar    1  LIG1        0.0543
      3 C           8.7124   -3.2712   -2.9000 C.ar    1  LIG1        0.0483
      4 N           7.5486   -2.8226   -3.4154 N.ar    1  LIG1       -0.2022
      5 N           7.9106   -0.7455   -2.2937 N.ar    1  LIG1       -0.2022
      6 C           4.3056   -0.2493   -9.4617 C.ar    1  LIG1       -0.0504
      7 C           3.6233   -0.3325   -8.2449 C.ar    1  LIG1       -0.0583
      8 C           3.7330    0.6901   -7.2948 C.ar    1  LIG1       -0.0535
      9 C           4.5298    1.8226   -7.5300 C.ar    1  LIG1       -0.0094
     10 C           5.2262    1.8799   -8.7497 C.ar    1  LIG1       -0.0535
     11 C           5.0998    0.8715   -9.7111 C.ar    1  LIG1       -0.0583
     12 C           5.3463    9.5802   -8.4579 C.ar    1  LIG1       -0.0561
     13 C           5.5431    8.2422   -8.8073 C.ar    1  LIG1       -0.0348
     14 C           4.5650    7.2948   -8.5049 C.ar    1  LIG1        0.1086
     15 C           3.3994    7.6782   -7.8473 C.ar    1  LIG1       -0.0348
     16 C           3.2156    9.0198   -7.4880 C.ar    1  LIG1       -0.0561
     17 C           3.9881   11.4910   -7.4326 C.3     1  LIG1        0.0132
     18 C           4.1812   10.0002   -7.7852 C.ar    1  LIG1       -0.0394
     19 C           5.2118   12.0004   -6.6346 C.3     1  LIG1       -0.0537
     20 C           3.8651   12.3263   -8.7372 C.3     1  LIG1        0.0533
     21 C           2.7419   11.7641   -6.5582 C.3     1  LIG1       -0.0537
     22 O           2.6899   12.0006   -9.4763 O.3     1  LIG1       -0.3942
     23 S           4.8561    5.6178   -8.9978 S.O2    1  LIG1        0.0735
     24 O           6.2248    5.2795   -8.6664 O.2     1  LIG1       -0.1499
     25 O           4.3803    5.5139  -10.3610 O.2     1  LIG1       -0.1499
     26 N           3.8187    4.6551   -8.0903 N.pl3   1  LIG1       -0.1988
     27 C           4.6218    2.9163   -6.5410 C.ar    1  LIG1        0.0847
     28 C           5.0192    2.7319   -5.2199 C.ar    1  LIG1        0.2276
     29 N           5.1081    3.7200   -4.3050 N.ar    1  LIG1       -0.2008
     30 C           4.7847    4.9446   -4.7235 C.ar    1  LIG1        0.1219
     31 N           4.3723    5.2627   -5.9494 N.ar    1  LIG1       -0.2186
     32 C           4.3029    4.2433   -6.8213 C.ar    1  LIG1        0.1524
     33 C           4.1474   -1.3203  -10.4994 C.3     1  LIG1       -0.0397
     34 O           5.2825    1.4404   -4.8043 O.3     1  LIG1       -0.4724
     35 C           5.8310    1.3076   -3.4860 C.3     1  LIG1        0.1252
     36 C           5.4157   -0.0536   -2.9264 C.3     1  LIG1        0.1267
     37 O           6.0192   -1.1348   -3.6378 O.3     1  LIG1       -0.4590
     38 C           7.1976   -1.5720   -3.0806 C.ar    1  LIG1        0.3180
     39 BR         11.1342   -3.1745   -1.3867 Br      1  LIG1       -0.0472
     40 H           9.6331   -0.5650   -1.1799 H       1  LIG1        0.0843
     41 H           8.9728   -4.2876   -3.1796 H       1  LIG1        0.0843
     42 H           3.0031   -1.1983   -8.0230 H       1  LIG1        0.0620
     43 H           3.1890    0.5845   -6.3576 H       1  LIG1        0.0624
     44 H           5.8921    2.7118   -8.9710 H       1  LIG1        0.0624
     45 H           5.6384    0.9670  -10.6522 H       1  LIG1        0.0620
     46 H           6.1234   10.2931   -8.7269 H       1  LIG1        0.0621
     47 H           6.4549    7.9486   -9.3240 H       1  LIG1        0.0637
     48 H           2.6300    6.9513   -7.6008 H       1  LIG1        0.0637
     49 H           2.2921    9.2732   -6.9729 H       1  LIG1        0.0621
     50 H           5.3761   11.3962   -5.7346 H       1  LIG1        0.0239
     51 H           5.0705   13.0402   -6.3169 H       1  LIG1        0.0239
     52 H           6.1346   11.9741   -7.2240 H       1  LIG1        0.0239
     53 H           4.7278   12.1918   -9.3990 H       1  LIG1        0.0566
     54 H           3.8074   13.3949   -8.5008 H       1  LIG1        0.0566
     55 H           1.8116   11.4761   -7.0602 H       1  LIG1        0.0239
     56 H           2.6572   12.8311   -6.3193 H       1  LIG1        0.0239
     57 H           2.7945   11.2210   -5.6072 H       1  LIG1        0.0239
     58 H           2.7536   11.0576   -9.7131 H       1  LIG1        0.2094
     59 H           3.3883    3.9417   -8.6765 H       1  LIG1        0.1753
     60 H           4.8514    5.7490   -3.9998 H       1  LIG1        0.1049
     61 H           4.0627   -2.3066  -10.0309 H       1  LIG1        0.0278
     62 H           5.0139   -1.3517  -11.1688 H       1  LIG1        0.0278
     63 H           3.2501   -1.1318  -11.0970 H       1  LIG1        0.0278
     64 H           5.4479    2.0623   -2.7908 H       1  LIG1        0.0731
     65 H           6.9189    1.4001   -3.5631 H       1  LIG1        0.0731
     66 H           4.3339   -0.1730   -3.0603 H       1  LIG1        0.0732
     67 H           5.5993   -0.1155   -1.8459 H       1  LIG1        0.0732
@<TRIPOS>BOND
     1     1     2   ar
     2     2     3   ar
     3     2    39    1
     4     3     4   ar
     5     4    38   ar
     6     5     1   ar
     7     6     7   ar
     8     6    33    1
     9     7     8   ar
    10     8     9   ar
    11     9    10   ar
    12    10    11   ar
    13    11     6   ar
    14    12    13   ar
    15    13    14   ar
    16    14    15   ar
    17    15    16   ar
    18    16    18   ar
    19    17    18    1
    20    17    21    1
    21    17    20    1
    22    17    19    1
    23    18    12   ar
    24    20    22    1
    25    23    26    1
    26    23    25    2
    27    23    24    2
    28    23    14    1
    29    26    32    1
    30    27    28   ar
    31    27     9    1
    32    28    29   ar
    33    29    30   ar
    34    30    31   ar
    35    31    32   ar
    36    32    27   ar
    37    34    35    1
    38    34    28    1
    39    35    36    1
    40    36    37    1
    41    37    38    1
    42    38     5   ar
    43     1    40    1
    44     3    41    1
    45     7    42    1
    46     8    43    1
    47    10    44    1
    48    11    45    1
    49    12    46    1
    50    13    47    1
    51    15    48    1
    52    16    49    1
    53    19    50    1
    54    19    51    1
    55    19    52    1
    56    20    53    1
    57    20    54    1
    58    21    55    1
    59    21    56    1
    60    21    57    1
    61    22    58    1
    62    26    59    1
    63    30    60    1
    64    33    61    1
    65    33    62    1
    66    33    63    1
    67    35    64    1
    68    35    65    1
    69    36    66    1
    70    36    67    1
@<TRIPOS>MOLECULE
*****
 67 70 0 0 0
SMALL
GASTEIGER

@<TRIPOS>ATOM
      1 C           4.2803   -3.3595   -2.4628 C.ar    1  LIG1        0.0483
      2 C           5.0523   -3.4194   -1.3269 C.ar    1  LIG1        0.0543
      3 C           5.3583   -2.2070   -0.7535 C.ar    1  LIG1        0.0483
      4 N           4.9483   -1.0199   -1.2520 N.ar    1  LIG1       -0.2022
      5 N           3.8292   -2.2047   -2.9952 N.ar    1  LIG1       -0.2022
      6 C           4.7143   -0.4406   -9.1467 C.ar    1  LIG1       -0.0504
      7 C           5.8479   -0.0531   -8.4283 C.ar    1  LIG1       -0.0583
      8 C           5.8095    1.0670   -7.5892 C.ar    1  LIG1       -0.0535
      9 C           4.6394    1.8302   -7.4415 C.ar    1  LIG1       -0.0094
     10 C           3.5196    1.4485   -8.2014 C.ar    1  LIG1       -0.0535
     11 C           3.5574    0.3354   -9.0480 C.ar    1  LIG1       -0.0583
     12 C           4.5578    3.4367  -12.4600 C.ar    1  LIG1       -0.0561
     13 C           4.3158    4.2337  -11.3370 C.ar    1  LIG1       -0.0348
     14 C           5.2523    4.2681  -10.3062 C.ar    1  LIG1        0.1086
     15 C           6.4270    3.5261  -10.3982 C.ar    1  LIG1       -0.0348
     16 C           6.6582    2.7292  -11.5234 C.ar    1  LIG1       -0.0561
     17 C           5.9857    1.8133  -13.8433 C.3     1  LIG1        0.0132
     18 C           5.7302    2.6594  -12.5773 C.ar    1  LIG1       -0.0394
     19 C           6.2858    2.7734  -15.0141 C.3     1  LIG1       -0.0537
     20 C           7.1455    0.7778  -13.7049 C.3     1  LIG1        0.0533
     21 C           4.7226    0.9852  -14.1877 C.3     1  LIG1       -0.0537
     22 O           8.4445    1.3638  -13.6613 O.3     1  LIG1       -0.3942
     23 S           5.0010    5.3598   -8.9307 S.O2    1  LIG1        0.0735
     24 O           4.4657    6.5917   -9.4719 O.2     1  LIG1       -0.1499
     25 O           6.2040    5.3487   -8.1235 O.2     1  LIG1       -0.1499
     26 N           3.7177    4.6174   -8.1079 N.pl3   1  LIG1       -0.1988
     27 C           4.5600    2.9517   -6.4836 C.ar    1  LIG1        0.0847
     28 C           4.9014    2.8388   -5.1383 C.ar    1  LIG1        0.2276
     29 N           4.7725    3.8277   -4.2265 N.ar    1  LIG1       -0.2008
     30 C           4.2581    4.9757   -4.6738 C.ar    1  LIG1        0.1219
     31 N           3.8631    5.2188   -5.9236 N.ar    1  LIG1       -0.2186
     32 C           4.0501    4.2074   -6.7888 C.ar    1  LIG1        0.1524
     33 C           4.7377   -1.6516  -10.0303 C.3     1  LIG1       -0.0397
     34 O           5.3721    1.6151   -4.6967 O.3     1  LIG1       -0.4724
     35 C           5.6278    1.5095   -3.2902 C.3     1  LIG1        0.1252
     36 C           4.3407    1.2753   -2.4927 C.3     1  LIG1        0.1267
     37 O           3.6807    0.0753   -2.9064 O.3     1  LIG1       -0.4590
     38 C           4.1915   -1.0786   -2.3623 C.ar    1  LIG1        0.3180
     39 BR          5.6444   -5.0466   -0.6040 Br      1  LIG1       -0.0472
     40 H           3.9833   -4.2552   -3.0001 H       1  LIG1        0.0843
     41 H           5.9551   -2.1413    0.1516 H       1  LIG1        0.0843
     42 H           6.7667   -0.6311   -8.4965 H       1  LIG1        0.0620
     43 H           6.7062    1.3234   -7.0275 H       1  LIG1        0.0624
     44 H           2.5859    2.0020   -8.1234 H       1  LIG1        0.0624
     45 H           2.6664    0.0658   -9.6105 H       1  LIG1        0.0620
     46 H           3.8180    3.4508  -13.2572 H       1  LIG1        0.0621
     47 H           3.4115    4.8349  -11.2863 H       1  LIG1        0.0637
     48 H           7.1791    3.5683   -9.6134 H       1  LIG1        0.0637
     49 H           7.5970    2.1813  -11.5564 H       1  LIG1        0.0621
     50 H           5.4287    3.4178  -15.2419 H       1  LIG1        0.0239
     51 H           6.5273    2.2175  -15.9273 H       1  LIG1        0.0239
     52 H           7.1308    3.4344  -14.7879 H       1  LIG1        0.0239
     53 H           7.1473    0.0825  -14.5527 H       1  LIG1        0.0566
     54 H           7.0200    0.1721  -12.7997 H       1  LIG1        0.0566
     55 H           4.4219    0.3544  -13.3429 H       1  LIG1        0.0239
     56 H           4.9029    0.3296  -15.0480 H       1  LIG1        0.0239
     57 H           3.8670    1.6142  -14.4549 H       1  LIG1        0.0239
     58 H           8.6254    1.7591  -14.5306 H       1  LIG1        0.2094
     59 H           2.9716    5.3120   -8.0659 H       1  LIG1        0.1753
     60 H           4.1494    5.7811   -3.9558 H       1  LIG1        0.1049
     61 H           5.5569   -2.3255   -9.7580 H       1  LIG1        0.0278
     62 H           4.8610   -1.3546  -11.0759 H       1  LIG1        0.0278
     63 H           3.8061   -2.2188   -9.9261 H       1  LIG1        0.0278
     64 H           6.1864    2.3761   -2.9165 H       1  LIG1        0.0731
     65 H           6.2933    0.6467   -3.1759 H       1  LIG1        0.0731
     66 H           3.6262    2.0819   -2.6845 H       1  LIG1        0.0732
     67 H           4.5310    1.2968   -1.4130 H       1  LIG1        0.0732
@<TRIPOS>BOND
     1     1     2   ar
     2     2     3   ar
     3     2    39    1
     4     3     4   ar
     5     4    38   ar
     6     5     1   ar
     7     6     7   ar
     8     6    33    1
     9     7     8   ar
    10     8     9   ar
    11     9    10   ar
    12    10    11   ar
    13    11     6   ar
    14    12    13   ar
    15    13    14   ar
    16    14    15   ar
    17    15    16   ar
    18    16    18   ar
    19    17    18    1
    20    17    21    1
    21    17    20    1
    22    17    19    1
    23    18    12   ar
    24    20    22    1
    25    23    26    1
    26    23    25    2
    27    23    24    2
    28    23    14    1
    29    26    32    1
    30    27    28   ar
    31    27     9    1
    32    28    29   ar
    33    29    30   ar
    34    30    31   ar
    35    31    32   ar
    36    32    27   ar
    37    34    35    1
    38    34    28    1
    39    35    36    1
    40    36    37    1
    41    37    38    1
    42    38     5   ar
    43     1    40    1
    44     3    41    1
    45     7    42    1
    46     8    43    1
    47    10    44    1
    48    11    45    1
    49    12    46    1
    50    13    47    1
    51    15    48    1
    52    16    49    1
    53    19    50    1
    54    19    51    1
    55    19    52    1
    56    20    53    1
    57    20    54    1
    58    21    55    1
    59    21    56    1
    60    21    57    1
    61    22    58    1
    62    26    59    1
    63    30    60    1
    64    33    61    1
    65    33    62    1
    66    33    63    1
    67    35    64    1
    68    35    65    1
    69    36    66    1
    70    36    67    1
@<TRIPOS>MOLECULE
*****
 67 70 0 0 0
SMALL
GASTEIGER

@<TRIPOS>ATOM
      1 C           8.4855    5.7764   -2.1597 C.ar    1  LIG1        0.0483
      2 C           8.0779    5.4983   -0.8741 C.ar    1  LIG1        0.0543
      3 C           7.5924    4.2279   -0.6709 C.ar    1  LIG1        0.0483
      4 N           7.5066    3.2934   -1.6432 N.ar    1  LIG1       -0.2022
      5 N           8.4145    4.8869   -3.1707 N.ar    1  LIG1       -0.2022
      6 C           4.3950   -0.2825   -9.4747 C.ar    1  LIG1       -0.0504
      7 C           3.7119   -0.3847   -8.2623 C.ar    1  LIG1       -0.0583
      8 C           3.7908    0.6441   -7.3167 C.ar    1  LIG1       -0.0535
      9 C           4.5557    1.8031   -7.5466 C.ar    1  LIG1       -0.0094
     10 C           5.2517    1.8774   -8.7617 C.ar    1  LIG1       -0.0535
     11 C           5.1583    0.8605   -9.7212 C.ar    1  LIG1       -0.0583
     12 C           3.8911    9.4003   -9.0663 C.ar    1  LIG1       -0.0561
     13 C           4.1082    8.0507   -9.3695 C.ar    1  LIG1       -0.0348
     14 C           4.7196    7.2156   -8.4345 C.ar    1  LIG1        0.1086
     15 C           5.1497    7.7346   -7.2161 C.ar    1  LIG1       -0.0348
     16 C           4.9054    9.0776   -6.9100 C.ar    1  LIG1       -0.0561
     17 C           4.0369   11.4249   -7.4530 C.3     1  LIG1        0.0132
     18 C           4.2603    9.9403   -7.8211 C.ar    1  LIG1       -0.0394
     19 C           5.4159   12.1198   -7.4025 C.3     1  LIG1       -0.0537
     20 C           3.1601   12.2208   -8.4654 C.3     1  LIG1        0.0533
     21 C           3.3650   11.5392   -6.0635 C.3     1  LIG1       -0.0537
     22 O           1.7941   11.8125   -8.4646 O.3     1  LIG1       -0.3942
     23 S           5.0501    5.5147   -8.8488 S.O2    1  LIG1        0.0735
     24 O           6.3296    5.1599   -8.2749 O.2     1  LIG1       -0.1499
     25 O           4.8202    5.3867  -10.2740 O.2     1  LIG1       -0.1499
     26 N           3.7877    4.6687   -8.0789 N.pl3   1  LIG1       -0.1988
     27 C           4.5761    2.8901   -6.5441 C.ar    1  LIG1        0.0847
     28 C           4.9196    2.6900   -5.2097 C.ar    1  LIG1        0.2276
     29 N           4.7888    3.6195   -4.2402 N.ar    1  LIG1       -0.2008
     30 C           4.3163    4.8065   -4.6180 C.ar    1  LIG1        0.1219
     31 N           3.9651    5.1482   -5.8588 N.ar    1  LIG1       -0.2186
     32 C           4.1322    4.1878   -6.7835 C.ar    1  LIG1        0.1524
     33 C           4.2571   -1.3518  -10.5168 C.3     1  LIG1       -0.0397
     34 O           5.3698    1.4337   -4.8447 O.3     1  LIG1       -0.4724
     35 C           5.9366    1.3193   -3.5326 C.3     1  LIG1        0.1252
     36 C           7.4589    1.4728   -3.5803 C.3     1  LIG1        0.1267
     37 O           7.8738    2.7960   -3.9195 O.3     1  LIG1       -0.4590
     38 C           7.9243    3.6749   -2.8640 C.ar    1  LIG1        0.3180
     39 BR          8.1818    6.7669    0.5022 Br      1  LIG1       -0.0472
     40 H           8.8926    6.7453   -2.4335 H       1  LIG1        0.0843
     41 H           7.2448    3.9044    0.3059 H       1  LIG1        0.0843
     42 H           3.1063   -1.2619   -8.0439 H       1  LIG1        0.0620
     43 H           3.2364    0.5303   -6.3864 H       1  LIG1        0.0624
     44 H           5.8853    2.7310   -8.9898 H       1  LIG1        0.0624
     45 H           5.6890    0.9765  -10.6624 H       1  LIG1        0.0620
     46 H           3.4383   10.0104   -9.8436 H       1  LIG1        0.0621
     47 H           3.8169    7.6722  -10.3481 H       1  LIG1        0.0637
     48 H           5.6783    7.1080   -6.5005 H       1  LIG1        0.0637
     49 H           5.2518    9.4465   -5.9466 H       1  LIG1        0.0621
     50 H           6.0775   11.6671   -6.6551 H       1  LIG1        0.0239
     51 H           5.3158   13.1802   -7.1437 H       1  LIG1        0.0239
     52 H           5.9251   12.0588   -8.3717 H       1  LIG1        0.0239
     53 H           3.5461   12.1547   -9.4885 H       1  LIG1        0.0566
     54 H           3.1602   13.2863   -8.2064 H       1  LIG1        0.0566
     55 H           2.4375   10.9569   -6.0177 H       1  LIG1        0.0239
     56 H           3.1176   12.5821   -5.8325 H       1  LIG1        0.0239
     57 H           4.0145   11.1845   -5.2563 H       1  LIG1        0.0239
     58 H           1.7653   10.8409   -8.4437 H       1  LIG1        0.2094
     59 H           2.9951    5.2984   -7.9715 H       1  LIG1        0.1753
     60 H           4.2065    5.5602   -3.8461 H       1  LIG1        0.1049
     61 H           4.1924   -2.3418  -10.0523 H       1  LIG1        0.0278
     62 H           5.1226   -1.3634  -11.1879 H       1  LIG1        0.0278
     63 H           3.3545   -1.1800  -11.1117 H       1  LIG1        0.0278
     64 H           5.7129    0.2978   -3.2038 H       1  LIG1        0.0731
     65 H           5.4633    1.9777   -2.7975 H       1  LIG1        0.0731
     66 H           7.8491    0.8267   -4.3755 H       1  LIG1        0.0732
     67 H           7.9262    1.1269   -2.6501 H       1  LIG1        0.0732
@<TRIPOS>BOND
     1     1     2   ar
     2     2     3   ar
     3     2    39    1
     4     3     4   ar
     5     4    38   ar
     6     5     1   ar
     7     6     7   ar
     8     6    33    1
     9     7     8   ar
    10     8     9   ar
    11     9    10   ar
    12    10    11   ar
    13    11     6   ar
    14    12    13   ar
    15    13    14   ar
    16    14    15   ar
    17    15    16   ar
    18    16    18   ar
    19    17    18    1
    20    17    21    1
    21    17    20    1
    22    17    19    1
    23    18    12   ar
    24    20    22    1
    25    23    26    1
    26    23    25    2
    27    23    24    2
    28    23    14    1
    29    26    32    1
    30    27    28   ar
    31    27     9    1
    32    28    29   ar
    33    29    30   ar
    34    30    31   ar
    35    31    32   ar
    36    32    27   ar
    37    34    35    1
    38    34    28    1
    39    35    36    1
    40    36    37    1
    41    37    38    1
    42    38     5   ar
    43     1    40    1
    44     3    41    1
    45     7    42    1
    46     8    43    1
    47    10    44    1
    48    11    45    1
    49    12    46    1
    50    13    47    1
    51    15    48    1
    52    16    49    1
    53    19    50    1
    54    19    51    1
    55    19    52    1
    56    20    53    1
    57    20    54    1
    58    21    55    1
    59    21    56    1
    60    21    57    1
    61    22    58    1
    62    26    59    1
    63    30    60    1
    64    33    61    1
    65    33    62    1
    66    33    63    1
    67    35    64    1
    68    35    65    1
    69    36    66    1
    70    36    67    1
@<TRIPOS>MOLECULE
*****
 67 70 0 0 0
SMALL
GASTEIGER

@<TRIPOS>ATOM
      1 C           4.0999    2.8716    0.4563 C.ar    1  LIG1        0.0483
      2 C           3.1704    3.8831    0.5204 C.ar    1  LIG1        0.0543
      3 C           2.3276    3.9835   -0.5618 C.ar    1  LIG1        0.0483
      4 N           2.3824    3.1600   -1.6287 N.ar    1  LIG1       -0.2022
      5 N           4.2067    2.0226   -0.5876 N.ar    1  LIG1       -0.2022
      6 C           4.7245   -0.4833   -9.1393 C.ar    1  LIG1       -0.0504
      7 C           5.8704   -0.0601   -8.4609 C.ar    1  LIG1       -0.0583
      8 C           5.8336    1.0741   -7.6400 C.ar    1  LIG1       -0.0535
      9 C           4.6517    1.8116   -7.4646 C.ar    1  LIG1       -0.0094
     10 C           3.5228    1.4025   -8.1980 C.ar    1  LIG1       -0.0535
     11 C           3.5593    0.2778   -9.0293 C.ar    1  LIG1       -0.0583
     12 C           4.0312    9.2721   -9.0829 C.ar    1  LIG1       -0.0561
     13 C           4.2082    7.9207   -9.4029 C.ar    1  LIG1       -0.0348
     14 C           4.7595    7.0527   -8.4613 C.ar    1  LIG1        0.1086
     15 C           5.1795    7.5430   -7.2270 C.ar    1  LIG1       -0.0348
     16 C           4.9736    8.8902   -6.9042 C.ar    1  LIG1       -0.0561
     17 C           4.1440   11.2713   -7.4722 C.3     1  LIG1        0.0132
     18 C           4.3754    9.7817   -7.8143 C.ar    1  LIG1       -0.0394
     19 C           5.2521   12.0967   -8.1581 C.3     1  LIG1       -0.0537
     20 C           2.7635   11.7838   -7.9795 C.3     1  LIG1        0.0533
     21 C           4.2045   11.5628   -5.9529 C.3     1  LIG1       -0.0537
     22 O           1.6749   11.1192   -7.3429 O.3     1  LIG1       -0.3942
     23 S           4.9816    5.3246   -8.8636 S.O2    1  LIG1        0.0735
     24 O           6.2377    4.8995   -8.2836 O.2     1  LIG1       -0.1499
     25 O           4.7288    5.2018  -10.2846 O.2     1  LIG1       -0.1499
     26 N           3.6645    4.5922   -8.0673 N.pl3   1  LIG1       -0.1988
     27 C           4.5520    2.9132   -6.4834 C.ar    1  LIG1        0.0847
     28 C           4.9221    2.7833   -5.1478 C.ar    1  LIG1        0.2276
     29 N           4.7258    3.7279   -4.2056 N.ar    1  LIG1       -0.2008
     30 C           4.0885    4.8310   -4.5997 C.ar    1  LIG1        0.1219
     31 N           3.7072    5.1097   -5.8488 N.ar    1  LIG1       -0.2186
     32 C           3.9753    4.1498   -6.7493 C.ar    1  LIG1        0.1524
     33 C           4.7470   -1.7102  -10.0008 C.3     1  LIG1       -0.0397
     34 O           5.5391    1.6062   -4.7686 O.3     1  LIG1       -0.4724
     35 C           5.7136    1.3896   -3.3642 C.3     1  LIG1        0.1252
     36 C           4.5376    0.5881   -2.8005 C.3     1  LIG1        0.1267
     37 O           3.3468    1.3692   -2.6814 O.3     1  LIG1       -0.4590
     38 C           3.3332    2.2118   -1.5944 C.ar    1  LIG1        0.3180
     39 BR          3.0577    5.0470    1.9877 Br      1  LIG1       -0.0472
     40 H           4.8091    2.6995    1.2607 H       1  LIG1        0.0843
     41 H           1.5559    4.7460   -0.6139 H       1  LIG1        0.0843
     42 H           6.7993   -0.6199   -8.5477 H       1  LIG1        0.0620
     43 H           6.7412    1.3605   -7.1119 H       1  LIG1        0.0624
     44 H           2.5818    1.9425   -8.1082 H       1  LIG1        0.0624
     45 H           2.6612   -0.0110   -9.5709 H       1  LIG1        0.0620
     46 H           3.6251    9.9214   -9.8560 H       1  LIG1        0.0621
     47 H           3.9258    7.5659  -10.3925 H       1  LIG1        0.0637
     48 H           5.6602    6.8874   -6.5044 H       1  LIG1        0.0637
     49 H           5.3024    9.2213   -5.9223 H       1  LIG1        0.0621
     50 H           6.2477   11.7821   -7.8228 H       1  LIG1        0.0239
     51 H           5.1482   13.1642   -7.9314 H       1  LIG1        0.0239
     52 H           5.2227   11.9873   -9.2483 H       1  LIG1        0.0239
     53 H           2.6422   11.6784   -9.0620 H       1  LIG1        0.0566
     54 H           2.6534   12.8530   -7.7623 H       1  LIG1        0.0566
     55 H           3.5026   10.9354   -5.3915 H       1  LIG1        0.0239
     56 H           3.9510   12.6092   -5.7433 H       1  LIG1        0.0239
     57 H           5.2075   11.3972   -5.5439 H       1  LIG1        0.0239
     58 H           1.7908   10.1642   -7.4917 H       1  LIG1        0.2094
     59 H           2.9082    5.2706   -7.9905 H       1  LIG1        0.1753
     60 H           3.8755    5.5729   -3.8382 H       1  LIG1        0.1049
     61 H           5.5587   -2.3846   -9.7071 H       1  LIG1        0.0278
     62 H           4.8816   -1.4335  -11.0504 H       1  LIG1        0.0278
     63 H           3.8109   -2.2696   -9.8952 H       1  LIG1        0.0278
     64 H           5.9194    2.3109   -2.8093 H       1  LIG1        0.0731
     65 H           6.6159    0.7739   -3.2737 H       1  LIG1        0.0731
     66 H           4.8001    0.1027   -1.8526 H       1  LIG1        0.0732
     67 H           4.2961   -0.2219   -3.4989 H       1  LIG1        0.0732
@<TRIPOS>BOND
     1     1     2   ar
     2     2     3   ar
     3     2    39    1
     4     3     4   ar
     5     4    38   ar
     6     5     1   ar
     7     6     7   ar
     8     6    33    1
     9     7     8   ar
    10     8     9   ar
    11     9    10   ar
    12    10    11   ar
    13    11     6   ar
    14    12    13   ar
    15    13    14   ar
    16    14    15   ar
    17    15    16   ar
    18    16    18   ar
    19    17    18    1
    20    17    21    1
    21    17    20    1
    22    17    19    1
    23    18    12   ar
    24    20    22    1
    25    23    26    1
    26    23    25    2
    27    23    24    2
    28    23    14    1
    29    26    32    1
    30    27    28   ar
    31    27     9    1
    32    28    29   ar
    33    29    30   ar
    34    30    31   ar
    35    31    32   ar
    36    32    27   ar
    37    34    35    1
    38    34    28    1
    39    35    36    1
    40    36    37    1
    41    37    38    1
    42    38     5   ar
    43     1    40    1
    44     3    41    1
    45     7    42    1
    46     8    43    1
    47    10    44    1
    48    11    45    1
    49    12    46    1
    50    13    47    1
    51    15    48    1
    52    16    49    1
    53    19    50    1
    54    19    51    1
    55    19    52    1
    56    20    53    1
    57    20    54    1
    58    21    55    1
    59    21    56    1
    60    21    57    1
    61    22    58    1
    62    26    59    1
    63    30    60    1
    64    33    61    1
    65    33    62    1
    66    33    63    1
    67    35    64    1
    68    35    65    1
    69    36    66    1
    70    36    67    1
@<TRIPOS>MOLECULE
*****
 67 70 0 0 0
SMALL
GASTEIGER

@<TRIPOS>ATOM
      1 C           3.5131   -3.8720   -4.1234 C.ar    1  LIG1        0.0483
      2 C           4.4975   -4.1791   -3.2150 C.ar    1  LIG1        0.0543
      3 C           5.0291   -3.1093   -2.5324 C.ar    1  LIG1        0.0483
      4 N           4.6298   -1.8310   -2.7150 N.ar    1  LIG1       -0.2022
      5 N           3.0801   -2.6150   -4.3519 N.ar    1  LIG1       -0.2022
      6 C           4.9090   -0.7759   -9.1582 C.ar    1  LIG1       -0.0504
      7 C           5.9818   -0.1860   -8.4864 C.ar    1  LIG1       -0.0583
      8 C           5.7883    0.9662   -7.7138 C.ar    1  LIG1       -0.0535
      9 C           4.5181    1.5559   -7.5778 C.ar    1  LIG1       -0.0094
     10 C           3.4606    0.9648   -8.2830 C.ar    1  LIG1       -0.0535
     11 C           3.6533   -0.1717   -9.0762 C.ar    1  LIG1       -0.0583
     12 C           0.8833    8.2599   -7.7330 C.ar    1  LIG1       -0.0561
     13 C           1.5332    7.1739   -8.3312 C.ar    1  LIG1       -0.0348
     14 C           1.2841    5.8816   -7.8685 C.ar    1  LIG1        0.1086
     15 C           0.3935    5.6787   -6.8152 C.ar    1  LIG1       -0.0348
     16 C          -0.2501    6.7711   -6.2220 C.ar    1  LIG1       -0.0561
     17 C          -0.8166    9.2910   -6.1067 C.3     1  LIG1        0.0132
     18 C          -0.0313    8.0859   -6.6724 C.ar    1  LIG1       -0.0394
     19 C          -1.8361    9.7426   -7.1761 C.3     1  LIG1       -0.0537
     20 C          -1.5642    9.0103   -4.7649 C.3     1  LIG1        0.0533
     21 C           0.1468   10.4677   -5.8128 C.3     1  LIG1       -0.0537
     22 O          -2.6875    8.1431   -4.8973 O.3     1  LIG1       -0.3942
     23 S           1.9154    4.4836   -8.7754 S.O2    1  LIG1        0.0735
     24 O           1.9311    4.8796  -10.1697 O.2     1  LIG1       -0.1499
     25 O           1.1684    3.3190   -8.3504 O.2     1  LIG1       -0.1499
     26 N           3.5303    4.3161   -8.3210 N.pl3   1  LIG1       -0.1988
     27 C           4.2900    2.6782   -6.6434 C.ar    1  LIG1        0.0847
     28 C           4.5885    2.5792   -5.2863 C.ar    1  LIG1        0.2276
     29 N           4.4161    3.5638   -4.3797 N.ar    1  LIG1       -0.2008
     30 C           3.9355    4.7124   -4.8590 C.ar    1  LIG1        0.1219
     31 N           3.6290    4.9596   -6.1350 N.ar    1  LIG1       -0.2186
     32 C           3.7836    3.9277   -6.9818 C.ar    1  LIG1        0.1524
     33 C           5.0936   -2.0216   -9.9710 C.3     1  LIG1       -0.0397
     34 O           5.1756    1.4059   -4.8560 O.3     1  LIG1       -0.4724
     35 C           5.0987    1.1343   -3.4562 C.3     1  LIG1        0.1252
     36 C           3.7044    0.6508   -3.0479 C.3     1  LIG1        0.1267
     37 O           3.2044   -0.3785   -3.9034 O.3     1  LIG1       -0.4590
     38 C           3.6660   -1.6439   -3.6344 C.ar    1  LIG1        0.3180
     39 BR          5.0747   -5.9405   -2.9212 Br      1  LIG1       -0.0472
     40 H           3.0218   -4.6379   -4.7159 H       1  LIG1        0.0843
     41 H           5.8148   -3.2413   -1.7941 H       1  LIG1        0.0843
     42 H           6.9724   -0.6317   -8.5346 H       1  LIG1        0.0620
     43 H           6.6408    1.3740   -7.1741 H       1  LIG1        0.0624
     44 H           2.4490    1.3485   -8.1917 H       1  LIG1        0.0624
     45 H           2.8002   -0.5991   -9.5990 H       1  LIG1        0.0620
     46 H           1.0696    9.2487   -8.1479 H       1  LIG1        0.0621
     47 H           2.1883    7.3430   -9.1816 H       1  LIG1        0.0637
     48 H           0.1576    4.6730   -6.4702 H       1  LIG1        0.0637
     49 H          -0.9607    6.5563   -5.4273 H       1  LIG1        0.0621
     50 H          -1.3398   10.0998   -8.0856 H       1  LIG1        0.0239
     51 H          -2.4621   10.5619   -6.8037 H       1  LIG1        0.0239
     52 H          -2.4977    8.9212   -7.4748 H       1  LIG1        0.0239
     53 H          -1.9417    9.9431   -4.3288 H       1  LIG1        0.0566
     54 H          -0.8844    8.5680   -4.0278 H       1  LIG1        0.0566
     55 H           0.9372   10.1654   -5.1163 H       1  LIG1        0.0239
     56 H          -0.3889   11.3141   -5.3646 H       1  LIG1        0.0239
     57 H           0.6290   10.8537   -6.7172 H       1  LIG1        0.0239
     58 H          -3.3690    8.6087   -5.4109 H       1  LIG1        0.2094
     59 H           4.0402    5.1631   -8.5572 H       1  LIG1        0.1753
     60 H           3.7920    5.5220   -4.1514 H       1  LIG1        0.1049
     61 H           5.9862   -2.5711   -9.6553 H       1  LIG1        0.0278
     62 H           5.1922   -1.7699  -11.0302 H       1  LIG1        0.0278
     63 H           4.2385   -2.6937   -9.8412 H       1  LIG1        0.0278
     64 H           5.4224    1.9894   -2.8507 H       1  LIG1        0.0731
     65 H           5.8361    0.3469   -3.2720 H       1  LIG1        0.0731
     66 H           2.9964    1.4810   -3.1474 H       1  LIG1        0.0732
     67 H           3.6735    0.3538   -1.9923 H       1  LIG1        0.0732
@<TRIPOS>BOND
     1     1     2   ar
     2     2     3   ar
     3     2    39    1
     4     3     4   ar
     5     4    38   ar
     6     5     1   ar
     7     6     7   ar
     8     6    33    1
     9     7     8   ar
    10     8     9   ar
    11     9    10   ar
    12    10    11   ar
    13    11     6   ar
    14    12    13   ar
    15    13    14   ar
    16    14    15   ar
    17    15    16   ar
    18    16    18   ar
    19    17    18    1
    20    17    21    1
    21    17    20    1
    22    17    19    1
    23    18    12   ar
    24    20    22    1
    25    23    26    1
    26    23    25    2
    27    23    24    2
    28    23    14    1
    29    26    32    1
    30    27    28   ar
    31    27     9    1
    32    28    29   ar
    33    29    30   ar
    34    30    31   ar
    35    31    32   ar
    36    32    27   ar
    37    34    35    1
    38    34    28    1
    39    35    36    1
    40    36    37    1
    41    37    38    1
    42    38     5   ar
    43     1    40    1
    44     3    41    1
    45     7    42    1
    46     8    43    1
    47    10    44    1
    48    11    45    1
    49    12    46    1
    50    13    47    1
    51    15    48    1
    52    16    49    1
    53    19    50    1
    54    19    51    1
    55    19    52    1
    56    20    53    1
    57    20    54    1
    58    21    55    1
    59    21    56    1
    60    21    57    1
    61    22    58    1
    62    26    59    1
    63    30    60    1
    64    33    61    1
    65    33    62    1
    66    33    63    1
    67    35    64    1
    68    35    65    1
    69    36    66    1
    70    36    67    1
@<TRIPOS>MOLECULE
*****
 67 70 0 0 0
SMALL
GASTEIGER

@<TRIPOS>ATOM
      1 C           6.1400   -4.2333   -3.9409 C.ar    1  LIG1        0.0483
      2 C           6.9703   -4.0702   -2.8577 C.ar    1  LIG1        0.0543
      3 C           6.9560   -2.8204   -2.2829 C.ar    1  LIG1        0.0483
      4 N           6.1823   -1.8032   -2.7228 N.ar    1  LIG1       -0.2022
      5 N           5.3569   -3.2501   -4.4328 N.ar    1  LIG1       -0.2022
      6 C           4.6530   -0.6616   -9.0799 C.ar    1  LIG1       -0.0504
      7 C           5.7546   -0.3587   -8.2804 C.ar    1  LIG1       -0.0583
      8 C           5.7999    0.8417   -7.5603 C.ar    1  LIG1       -0.0535
      9 C           4.7278    1.7526   -7.5714 C.ar    1  LIG1       -0.0094
     10 C           3.6720    1.4696   -8.4579 C.ar    1  LIG1       -0.0535
     11 C           3.6396    0.2885   -9.2103 C.ar    1  LIG1       -0.0583
     12 C           4.5108    3.4385  -12.3916 C.ar    1  LIG1       -0.0561
     13 C           4.2648    4.2319  -11.2682 C.ar    1  LIG1       -0.0348
     14 C           5.2688    4.4002  -10.3156 C.ar    1  LIG1        0.1086
     15 C           6.5174    3.8140  -10.4953 C.ar    1  LIG1       -0.0348
     16 C           6.7514    3.0224  -11.6219 C.ar    1  LIG1       -0.0561
     17 C           6.0065    1.9159  -13.8300 C.3     1  LIG1        0.0132
     18 C           5.7508    2.7947  -12.5856 C.ar    1  LIG1       -0.0394
     19 C           6.3617    2.8466  -15.0071 C.3     1  LIG1       -0.0537
     20 C           7.1287    0.8486  -13.6264 C.3     1  LIG1        0.0533
     21 C           4.7346    1.1123  -14.2056 C.3     1  LIG1       -0.0537
     22 O           8.4503    1.3827  -13.5944 O.3     1  LIG1       -0.3942
     23 S           4.9650    5.4197   -8.8975 S.O2    1  LIG1        0.0735
     24 O           4.3776    6.6470   -9.3929 O.2     1  LIG1       -0.1499
     25 O           6.1580    5.4222   -8.0753 O.2     1  LIG1       -0.1499
     26 N           3.7081    4.5796   -8.1257 N.pl3   1  LIG1       -0.1988
     27 C           4.6186    2.8597   -6.5839 C.ar    1  LIG1        0.0847
     28 C           4.9212    2.6976   -5.2288 C.ar    1  LIG1        0.2276
     29 N           4.6817    3.6100   -4.2634 N.ar    1  LIG1       -0.2008
     30 C           4.1028    4.7435   -4.6617 C.ar    1  LIG1        0.1219
     31 N           3.7547    5.0415   -5.9135 N.ar    1  LIG1       -0.2186
     32 C           4.0442    4.1017   -6.8313 C.ar    1  LIG1        0.1524
     33 C           4.5305   -1.9927   -9.7582 C.3     1  LIG1       -0.0397
     34 O           5.5677    1.5413   -4.8504 O.3     1  LIG1       -0.4724
     35 C           5.4030    1.0994   -3.5022 C.3     1  LIG1        0.1252
     36 C           4.3371    0.0026   -3.4486 C.3     1  LIG1        0.1267
     37 O           4.6241   -1.0845   -4.3332 O.3     1  LIG1       -0.4590
     38 C           5.4113   -2.0718   -3.7914 C.ar    1  LIG1        0.3180
     39 BR          8.0498   -5.4597   -2.2059 Br      1  LIG1       -0.0472
     40 H           6.0695   -5.1796   -4.4690 H       1  LIG1        0.0843
     41 H           7.5808   -2.5821   -1.4268 H       1  LIG1        0.0843
     42 H           6.5668   -1.0730   -8.1648 H       1  LIG1        0.0620
     43 H           6.6668    1.0130   -6.9243 H       1  LIG1        0.0624
     44 H           2.8147    2.1351   -8.5340 H       1  LIG1        0.0624
     45 H           2.7844    0.0923   -9.8534 H       1  LIG1        0.0620
     46 H           3.7082    3.3420  -13.1185 H       1  LIG1        0.0621
     47 H           3.2983    4.7157  -11.1477 H       1  LIG1        0.0637
     48 H           7.3182    3.9658   -9.7741 H       1  LIG1        0.0637
     49 H           7.7444    2.5923  -11.7242 H       1  LIG1        0.0621
     50 H           5.5366    3.5290  -15.2437 H       1  LIG1        0.0239
     51 H           6.5804    2.2686  -15.9121 H       1  LIG1        0.0239
     52 H           7.2360    3.4690  -14.7847 H       1  LIG1        0.0239
     53 H           7.1162    0.1150  -14.4408 H       1  LIG1        0.0566
     54 H           6.9682    0.2935  -12.6947 H       1  LIG1        0.0566
     55 H           4.3702    0.5266  -13.3534 H       1  LIG1        0.0239
     56 H           4.9351    0.4161  -15.0286 H       1  LIG1        0.0239
     57 H           3.9172    1.7563  -14.5471 H       1  LIG1        0.0239
     58 H           8.6448    1.7619  -14.4672 H       1  LIG1        0.2094
     59 H           2.9377    5.2446   -8.0459 H       1  LIG1        0.1753
     60 H           3.8970    5.4879   -3.9004 H       1  LIG1        0.1049
     61 H           5.3169   -2.6828   -9.4334 H       1  LIG1        0.0278
     62 H           4.5955   -1.8785  -10.8444 H       1  LIG1        0.0278
     63 H           3.5701   -2.4538   -9.5010 H       1  LIG1        0.0278
     64 H           5.1583    1.9006   -2.7971 H       1  LIG1        0.0731
     65 H           6.3764    0.7044   -3.1966 H       1  LIG1        0.0731
     66 H           3.3869    0.4219   -3.7988 H       1  LIG1        0.0732
     67 H           4.1644   -0.3432   -2.4217 H       1  LIG1        0.0732
@<TRIPOS>BOND
     1     1     2   ar
     2     2     3   ar
     3     2    39    1
     4     3     4   ar
     5     4    38   ar
     6     5     1   ar
     7     6     7   ar
     8     6    33    1
     9     7     8   ar
    10     8     9   ar
    11     9    10   ar
    12    10    11   ar
    13    11     6   ar
    14    12    13   ar
    15    13    14   ar
    16    14    15   ar
    17    15    16   ar
    18    16    18   ar
    19    17    18    1
    20    17    21    1
    21    17    20    1
    22    17    19    1
    23    18    12   ar
    24    20    22    1
    25    23    26    1
    26    23    25    2
    27    23    24    2
    28    23    14    1
    29    26    32    1
    30    27    28   ar
    31    27     9    1
    32    28    29   ar
    33    29    30   ar
    34    30    31   ar
    35    31    32   ar
    36    32    27   ar
    37    34    35    1
    38    34    28    1
    39    35    36    1
    40    36    37    1
    41    37    38    1
    42    38     5   ar
    43     1    40    1
    44     3    41    1
    45     7    42    1
    46     8    43    1
    47    10    44    1
    48    11    45    1
    49    12    46    1
    50    13    47    1
    51    15    48    1
    52    16    49    1
    53    19    50    1
    54    19    51    1
    55    19    52    1
    56    20    53    1
    57    20    54    1
    58    21    55    1
    59    21    56    1
    60    21    57    1
    61    22    58    1
    62    26    59    1
    63    30    60    1
    64    33    61    1
    65    33    62    1
    66    33    63    1
    67    35    64    1
    68    35    65    1
    69    36    66    1
    70    36    67    1
@<TRIPOS>MOLECULE
*****
 67 70 0 0 0
SMALL
GASTEIGER

@<TRIPOS>ATOM
      1 C           4.5079   -2.0148    1.0543 C.ar    1  LIG1        0.0483
      2 C           3.1619   -2.1645    0.8144 C.ar    1  LIG1        0.0543
      3 C           2.6870   -1.5330   -0.3107 C.ar    1  LIG1        0.0483
      4 N           3.4652   -0.8081   -1.1423 N.ar    1  LIG1       -0.2022
      5 N           5.3305   -1.2923    0.2635 N.ar    1  LIG1       -0.2022
      6 C           5.9027   -0.1241   -9.3504 C.ar    1  LIG1       -0.0504
      7 C           6.0828    1.2290   -9.6485 C.ar    1  LIG1       -0.0583
      8 C           5.6129    2.2231   -8.7779 C.ar    1  LIG1       -0.0535
      9 C           4.9463    1.8977   -7.5852 C.ar    1  LIG1       -0.0094
     10 C           4.7189    0.5289   -7.3385 C.ar    1  LIG1       -0.0535
     11 C           5.2076   -0.4671   -8.1911 C.ar    1  LIG1       -0.0583
     12 C           2.3848    5.4538  -12.5121 C.ar    1  LIG1       -0.0561
     13 C           2.4265    4.6911  -11.3388 C.ar    1  LIG1       -0.0348
     14 C           2.0644    5.2768  -10.1293 C.ar    1  LIG1        0.1086
     15 C           1.6404    6.6062  -10.0896 C.ar    1  LIG1       -0.0348
     16 C           1.6042    7.3619  -11.2671 C.ar    1  LIG1       -0.0561
     17 C           1.9445    7.6175  -13.8197 C.3     1  LIG1        0.0132
     18 C           1.9773    6.8063  -12.5043 C.ar    1  LIG1       -0.0394
     19 C           3.3696    7.6683  -14.4165 C.3     1  LIG1       -0.0537
     20 C           0.9979    6.9422  -14.8514 C.3     1  LIG1        0.0533
     21 C           1.4807    9.0831  -13.6371 C.3     1  LIG1       -0.0537
     22 O          -0.3608    6.9530  -14.4206 O.3     1  LIG1       -0.3942
     23 S           2.1301    4.3300   -8.6185 S.O2    1  LIG1        0.0735
     24 O           2.0245    2.9298   -8.9634 O.2     1  LIG1       -0.1499
     25 O           1.2139    4.9522   -7.6913 O.2     1  LIG1       -0.1499
     26 N           3.7219    4.6766   -8.1419 N.pl3   1  LIG1       -0.1988
     27 C           4.5855    2.9264   -6.5784 C.ar    1  LIG1        0.0847
     28 C           4.8691    2.7725   -5.2167 C.ar    1  LIG1        0.2276
     29 N           4.5846    3.6794   -4.2603 N.ar    1  LIG1       -0.2008
     30 C           4.0431    4.8227   -4.6751 C.ar    1  LIG1        0.1219
     31 N           3.7873    5.1404   -5.9427 N.ar    1  LIG1       -0.2186
     32 C           4.0456    4.1787   -6.8478 C.ar    1  LIG1        0.1524
     33 C           6.5107   -1.1944  -10.2073 C.3     1  LIG1       -0.0397
     34 O           5.5577    1.6358   -4.8360 O.3     1  LIG1       -0.4724
     35 C           5.9011    1.4917   -3.4583 C.3     1  LIG1        0.1252
     36 C           5.1813    0.2727   -2.8907 C.3     1  LIG1        0.1267
     37 O           5.5999    0.0909   -1.5402 O.3     1  LIG1       -0.4590
     38 C           4.7647   -0.7222   -0.8113 C.ar    1  LIG1        0.3180
     39 BR          2.0448   -3.1546    1.9513 Br      1  LIG1       -0.0472
     40 H           4.9878   -2.4725    1.9144 H       1  LIG1        0.0843
     41 H           1.6385   -1.5781   -0.5906 H       1  LIG1        0.0843
     42 H           6.6166    1.5244  -10.5487 H       1  LIG1        0.0620
     43 H           5.8148    3.2604   -9.0337 H       1  LIG1        0.0624
     44 H           4.1882    0.2119   -6.4421 H       1  LIG1        0.0624
     45 H           5.0592   -1.5117   -7.9261 H       1  LIG1        0.0620
     46 H           2.6802    4.9699  -13.4420 H       1  LIG1        0.0621
     47 H           2.7444    3.6512  -11.3791 H       1  LIG1        0.0637
     48 H           1.3377    7.0682   -9.1516 H       1  LIG1        0.0637
     49 H           1.2737    8.3947  -11.1866 H       1  LIG1        0.0621
     50 H           4.0797    8.1104  -13.7074 H       1  LIG1        0.0239
     51 H           3.3936    8.2732  -15.3308 H       1  LIG1        0.0239
     52 H           3.7436    6.6733  -14.6810 H       1  LIG1        0.0239
     53 H           1.2785    5.9047  -15.0611 H       1  LIG1        0.0566
     54 H           1.0334    7.4784  -15.8071 H       1  LIG1        0.0566
     55 H           0.4702    9.1464  -13.2180 H       1  LIG1        0.0239
     56 H           1.4638    9.6119  -14.5980 H       1  LIG1        0.0239
     57 H           2.1559    9.6396  -12.9763 H       1  LIG1        0.0239
     58 H          -0.3996    6.4681  -13.5768 H       1  LIG1        0.2094
     59 H           3.7903    5.6918   -8.0639 H       1  LIG1        0.1753
     60 H           3.8050    5.5626   -3.9190 H       1  LIG1        0.1049
     61 H           6.7418   -0.8201  -11.2096 H       1  LIG1        0.0278
     62 H           5.8232   -2.0390  -10.3201 H       1  LIG1        0.0278
     63 H           7.4391   -1.5522   -9.7492 H       1  LIG1        0.0278
     64 H           5.7045    2.3659   -2.8282 H       1  LIG1        0.0731
     65 H           6.9848    1.3339   -3.4048 H       1  LIG1        0.0731
     66 H           5.4430   -0.6195   -3.4741 H       1  LIG1        0.0732
     67 H           4.1030    0.4400   -2.9962 H       1  LIG1        0.0732
@<TRIPOS>BOND
     1     1     2   ar
     2     2     3   ar
     3     2    39    1
     4     3     4   ar
     5     4    38   ar
     6     5     1   ar
     7     6     7   ar
     8     6    33    1
     9     7     8   ar
    10     8     9   ar
    11     9    10   ar
    12    10    11   ar
    13    11     6   ar
    14    12    13   ar
    15    13    14   ar
    16    14    15   ar
    17    15    16   ar
    18    16    18   ar
    19    17    18    1
    20    17    21    1
    21    17    20    1
    22    17    19    1
    23    18    12   ar
    24    20    22    1
    25    23    26    1
    26    23    25    2
    27    23    24    2
    28    23    14    1
    29    26    32    1
    30    27    28   ar
    31    27     9    1
    32    28    29   ar
    33    29    30   ar
    34    30    31   ar
    35    31    32   ar
    36    32    27   ar
    37    34    35    1
    38    34    28    1
    39    35    36    1
    40    36    37    1
    41    37    38    1
    42    38     5   ar
    43     1    40    1
    44     3    41    1
    45     7    42    1
    46     8    43    1
    47    10    44    1
    48    11    45    1
    49    12    46    1
    50    13    47    1
    51    15    48    1
    52    16    49    1
    53    19    50    1
    54    19    51    1
    55    19    52    1
    56    20    53    1
    57    20    54    1
    58    21    55    1
    59    21    56    1
    60    21    57    1
    61    22    58    1
    62    26    59    1
    63    30    60    1
    64    33    61    1
    65    33    62    1
    66    33    63    1
    67    35    64    1
    68    35    65    1
    69    36    66    1
    70    36    67    1
@<TRIPOS>MOLECULE
*****
 67 70 0 0 0
SMALL
GASTEIGER

@<TRIPOS>ATOM
      1 C           3.5186   -3.8470   -4.1496 C.ar    1  LIG1        0.0483
      2 C           4.4715   -4.1964   -3.2226 C.ar    1  LIG1        0.0543
      3 C           5.0316   -3.1511   -2.5255 C.ar    1  LIG1        0.0483
      4 N           4.6887   -1.8578   -2.7137 N.ar    1  LIG1       -0.2022
      5 N           3.1412   -2.5728   -4.3836 N.ar    1  LIG1       -0.2022
      6 C           4.7402   -0.4534   -9.3011 C.ar    1  LIG1       -0.0504
      7 C           5.8808   -0.0423   -8.6072 C.ar    1  LIG1       -0.0583
      8 C           5.8291    1.0599   -7.7468 C.ar    1  LIG1       -0.0535
      9 C           4.6387    1.7805   -7.5558 C.ar    1  LIG1       -0.0094
     10 C           3.5139    1.3854   -8.3000 C.ar    1  LIG1       -0.0535
     11 C           3.5645    0.2886   -9.1658 C.ar    1  LIG1       -0.0583
     12 C           4.5547    3.4445  -12.4222 C.ar    1  LIG1       -0.0561
     13 C           4.3138    4.2348  -11.2942 C.ar    1  LIG1       -0.0348
     14 C           5.2512    4.2629  -10.2636 C.ar    1  LIG1        0.1086
     15 C           6.4276    3.5247  -10.3633 C.ar    1  LIG1       -0.0348
     16 C           6.6562    2.7322  -11.4923 C.ar    1  LIG1       -0.0561
     17 C           5.9760    1.8217  -13.8122 C.3     1  LIG1        0.0132
     18 C           5.7257    2.6661  -12.5441 C.ar    1  LIG1       -0.0394
     19 C           6.2722    2.7833  -14.9827 C.3     1  LIG1       -0.0537
     20 C           7.1356    0.7851  -13.6799 C.3     1  LIG1        0.0533
     21 C           4.7113    0.9946  -14.1534 C.3     1  LIG1       -0.0537
     22 O           8.4353    1.3697  -13.6364 O.3     1  LIG1       -0.3942
     23 S           4.9934    5.3348   -8.8730 S.O2    1  LIG1        0.0735
     24 O           4.4789    6.5800   -9.4051 O.2     1  LIG1       -0.1499
     25 O           6.1840    5.3008   -8.0497 O.2     1  LIG1       -0.1499
     26 N           3.6901    4.5963   -8.0801 N.pl3   1  LIG1       -0.1988
     27 C           4.5347    2.8509   -6.5470 C.ar    1  LIG1        0.0847
     28 C           4.8453    2.6556   -5.2039 C.ar    1  LIG1        0.2276
     29 N           4.6704    3.5724   -4.2284 N.ar    1  LIG1       -0.2008
     30 C           4.1479    4.7399   -4.6152 C.ar    1  LIG1        0.1219
     31 N           3.7844    5.0608   -5.8584 N.ar    1  LIG1       -0.2186
     32 C           4.0081    4.1109   -6.7839 C.ar    1  LIG1        0.1524
     33 C           4.7756   -1.6563  -10.1947 C.3     1  LIG1       -0.0397
     34 O           5.3794    1.4327   -4.8502 O.3     1  LIG1       -0.4724
     35 C           5.3029    1.0897   -3.4644 C.3     1  LIG1        0.1252
     36 C           3.8887    0.6598   -3.0604 C.3     1  LIG1        0.1267
     37 O           3.3514   -0.3434   -3.9263 O.3     1  LIG1       -0.4590
     38 C           3.7517   -1.6285   -3.6507 C.ar    1  LIG1        0.3180
     39 BR          4.9727   -5.9803   -2.9255 Br      1  LIG1       -0.0472
     40 H           3.0097   -4.5917   -4.7544 H       1  LIG1        0.0843
     41 H           5.7960   -3.3162   -1.7718 H       1  LIG1        0.0843
     42 H           6.8140   -0.5923   -8.7062 H       1  LIG1        0.0620
     43 H           6.7282    1.3309   -7.1956 H       1  LIG1        0.0624
     44 H           2.5661    1.9075   -8.1849 H       1  LIG1        0.0624
     45 H           2.6675   -0.0004   -9.7085 H       1  LIG1        0.0620
     46 H           3.8134    3.4622  -13.2176 H       1  LIG1        0.0621
     47 H           3.4094    4.8351  -11.2381 H       1  LIG1        0.0637
     48 H           7.1802    3.5619   -9.5792 H       1  LIG1        0.0637
     49 H           7.5934    2.1819  -11.5281 H       1  LIG1        0.0621
     50 H           5.4141    3.4274  -15.2072 H       1  LIG1        0.0239
     51 H           6.5115    2.2288  -15.8972 H       1  LIG1        0.0239
     52 H           7.1175    3.4447  -14.7580 H       1  LIG1        0.0239
     53 H           7.1353    0.0934  -14.5307 H       1  LIG1        0.0566
     54 H           7.0114    0.1757  -12.7771 H       1  LIG1        0.0566
     55 H           4.4145    0.3612  -13.3094 H       1  LIG1        0.0239
     56 H           4.8879    0.3416  -15.0165 H       1  LIG1        0.0239
     57 H           3.8546    1.6244  -14.4151 H       1  LIG1        0.0239
     58 H           8.6124    1.7743  -14.5022 H       1  LIG1        0.2094
     59 H           2.9585    5.3033   -8.0100 H       1  LIG1        0.1753
     60 H           4.0052    5.4942   -3.8490 H       1  LIG1        0.1049
     61 H           5.5976   -2.3268   -9.9223 H       1  LIG1        0.0278
     62 H           4.9010   -1.3503  -11.2368 H       1  LIG1        0.0278
     63 H           3.8476   -2.2317  -10.0991 H       1  LIG1        0.0278
     64 H           5.6783    1.8948   -2.8214 H       1  LIG1        0.0731
     65 H           5.9989    0.2555   -3.3334 H       1  LIG1        0.0731
     66 H           3.2106    1.5152   -3.1517 H       1  LIG1        0.0732
     67 H           3.8458    0.3544   -2.0075 H       1  LIG1        0.0732
@<TRIPOS>BOND
     1     1     2   ar
     2     2     3   ar
     3     2    39    1
     4     3     4   ar
     5     4    38   ar
     6     5     1   ar
     7     6     7   ar
     8     6    33    1
     9     7     8   ar
    10     8     9   ar
    11     9    10   ar
    12    10    11   ar
    13    11     6   ar
    14    12    13   ar
    15    13    14   ar
    16    14    15   ar
    17    15    16   ar
    18    16    18   ar
    19    17    18    1
    20    17    21    1
    21    17    20    1
    22    17    19    1
    23    18    12   ar
    24    20    22    1
    25    23    26    1
    26    23    25    2
    27    23    24    2
    28    23    14    1
    29    26    32    1
    30    27    28   ar
    31    27     9    1
    32    28    29   ar
    33    29    30   ar
    34    30    31   ar
    35    31    32   ar
    36    32    27   ar
    37    34    35    1
    38    34    28    1
    39    35    36    1
    40    36    37    1
    41    37    38    1
    42    38     5   ar
    43     1    40    1
    44     3    41    1
    45     7    42    1
    46     8    43    1
    47    10    44    1
    48    11    45    1
    49    12    46    1
    50    13    47    1
    51    15    48    1
    52    16    49    1
    53    19    50    1
    54    19    51    1
    55    19    52    1
    56    20    53    1
    57    20    54    1
    58    21    55    1
    59    21    56    1
    60    21    57    1
    61    22    58    1
    62    26    59    1
    63    30    60    1
    64    33    61    1
    65    33    62    1
    66    33    63    1
    67    35    64    1
    68    35    65    1
    69    36    66    1
    70    36    67    1
@<TRIPOS>MOLECULE
*****
 67 70 0 0 0
SMALL
GASTEIGER

@<TRIPOS>ATOM
      1 C           6.5494    5.0711   -0.2422 C.ar    1  LIG1        0.0483
      2 C           5.7326    4.4736    0.6885 C.ar    1  LIG1        0.0543
      3 C           5.3877    3.1689    0.4242 C.ar    1  LIG1        0.0483
      4 N           5.8048    2.4930   -0.6680 N.ar    1  LIG1       -0.2022
      5 N           6.9935    4.4468   -1.3531 N.ar    1  LIG1       -0.2022
      6 C           4.7309   -0.4559   -9.2794 C.ar    1  LIG1       -0.0504
      7 C           5.8551   -0.0746   -8.5427 C.ar    1  LIG1       -0.0583
      8 C           5.7984    1.0290   -7.6828 C.ar    1  LIG1       -0.0535
      9 C           4.6177    1.7761   -7.5302 C.ar    1  LIG1       -0.0094
     10 C           3.5132    1.4111   -8.3178 C.ar    1  LIG1       -0.0535
     11 C           3.5696    0.3149   -9.1848 C.ar    1  LIG1       -0.0583
     12 C           4.4636    3.2869  -12.3016 C.ar    1  LIG1       -0.0561
     13 C           4.2445    4.0901  -11.1784 C.ar    1  LIG1       -0.0348
     14 C           5.2729    4.2786  -10.2580 C.ar    1  LIG1        0.1086
     15 C           6.5186    3.6913  -10.4634 C.ar    1  LIG1       -0.0348
     16 C           6.7319    2.8995  -11.5949 C.ar    1  LIG1       -0.0561
     17 C           5.9441    1.7960  -13.7874 C.3     1  LIG1        0.0132
     18 C           5.7053    2.6589  -12.5288 C.ar    1  LIG1       -0.0394
     19 C           6.3748    2.7417  -14.9278 C.3     1  LIG1       -0.0537
     20 C           7.0604    0.7252  -13.6059 C.3     1  LIG1        0.0533
     21 C           4.6638    1.0444  -14.2257 C.3     1  LIG1       -0.0537
     22 O           6.7323   -0.2434  -12.6132 O.3     1  LIG1       -0.3942
     23 S           5.0226    5.3455   -8.8621 S.O2    1  LIG1        0.0735
     24 O           4.5074    6.5920   -9.3953 O.2     1  LIG1       -0.1499
     25 O           6.2142    5.2956   -8.0460 O.2     1  LIG1       -0.1499
     26 N           3.7212    4.6058   -8.0675 N.pl3   1  LIG1       -0.1988
     27 C           4.5075    2.8439   -6.5180 C.ar    1  LIG1        0.0847
     28 C           4.7610    2.6330   -5.1643 C.ar    1  LIG1        0.2276
     29 N           4.6019    3.5628   -4.2023 N.ar    1  LIG1       -0.2008
     30 C           4.1647    4.7570   -4.6018 C.ar    1  LIG1        0.1219
     31 N           3.8360    5.0883   -5.8529 N.ar    1  LIG1       -0.2186
     32 C           4.0347    4.1254   -6.7682 C.ar    1  LIG1        0.1524
     33 C           4.7513   -1.6765  -10.1517 C.3     1  LIG1       -0.0397
     34 O           5.1766    1.3694   -4.7855 O.3     1  LIG1       -0.4724
     35 C           5.2088    1.0996   -3.3786 C.3     1  LIG1        0.1252
     36 C           6.6346    1.2184   -2.8327 C.3     1  LIG1        0.1267
     37 O           7.0617    2.5701   -2.6630 O.3     1  LIG1       -0.4590
     38 C           6.5923    3.1766   -1.5200 C.ar    1  LIG1        0.3180
     39 BR          5.1281    5.3776    2.2175 Br      1  LIG1       -0.0472
     40 H           6.8868    6.0973   -0.1313 H       1  LIG1        0.0843
     41 H           4.7480    2.6031    1.0951 H       1  LIG1        0.0843
     42 H           6.7752   -0.6513   -8.6030 H       1  LIG1        0.0620
     43 H           6.6821    1.2777   -7.0968 H       1  LIG1        0.0624
     44 H           2.5750    1.9568   -8.2371 H       1  LIG1        0.0624
     45 H           2.6867    0.0464   -9.7607 H       1  LIG1        0.0620
     46 H           3.6433    3.1786  -13.0067 H       1  LIG1        0.0621
     47 H           3.2811    4.5740  -11.0400 H       1  LIG1        0.0637
     48 H           7.3359    3.8562   -9.7641 H       1  LIG1        0.0637
     49 H           7.7292    2.4883  -11.7260 H       1  LIG1        0.0621
     50 H           5.6096    3.4998  -15.1333 H       1  LIG1        0.0239
     51 H           6.5483    2.1881  -15.8577 H       1  LIG1        0.0239
     52 H           7.3018    3.2716  -14.6787 H       1  LIG1        0.0239
     53 H           8.0302    1.1654  -13.3539 H       1  LIG1        0.0566
     54 H           7.2130    0.1763  -14.5429 H       1  LIG1        0.0566
     55 H           4.2332    0.4680  -13.3987 H       1  LIG1        0.0239
     56 H           4.8781    0.3460  -15.0435 H       1  LIG1        0.0239
     57 H           3.8907    1.7253  -14.5983 H       1  LIG1        0.0239
     58 H           6.4474    0.2372  -11.8144 H       1  LIG1        0.2094
     59 H           2.9945    5.3184   -7.9935 H       1  LIG1        0.1753
     60 H           4.0603    5.5242   -3.8424 H       1  LIG1        0.1049
     61 H           5.6542   -2.2729   -9.9850 H       1  LIG1        0.0278
     62 H           4.7115   -1.3919  -11.2063 H       1  LIG1        0.0278
     63 H           3.8912   -2.3158   -9.9241 H       1  LIG1        0.0278
     64 H           4.9016    0.0519   -3.2802 H       1  LIG1        0.0731
     65 H           4.4721    1.6826   -2.8163 H       1  LIG1        0.0731
     66 H           7.3278    0.7732   -3.5560 H       1  LIG1        0.0732
     67 H           6.7557    0.6463   -1.9041 H       1  LIG1        0.0732
@<TRIPOS>BOND
     1     1     2   ar
     2     2     3   ar
     3     2    39    1
     4     3     4   ar
     5     4    38   ar
     6     5     1   ar
     7     6     7   ar
     8     6    33    1
     9     7     8   ar
    10     8     9   ar
    11     9    10   ar
    12    10    11   ar
    13    11     6   ar
    14    12    13   ar
    15    13    14   ar
    16    14    15   ar
    17    15    16   ar
    18    16    18   ar
    19    17    18    1
    20    17    21    1
    21    17    20    1
    22    17    19    1
    23    18    12   ar
    24    20    22    1
    25    23    26    1
    26    23    25    2
    27    23    24    2
    28    23    14    1
    29    26    32    1
    30    27    28   ar
    31    27     9    1
    32    28    29   ar
    33    29    30   ar
    34    30    31   ar
    35    31    32   ar
    36    32    27   ar
    37    34    35    1
    38    34    28    1
    39    35    36    1
    40    36    37    1
    41    37    38    1
    42    38     5   ar
    43     1    40    1
    44     3    41    1
    45     7    42    1
    46     8    43    1
    47    10    44    1
    48    11    45    1
    49    12    46    1
    50    13    47    1
    51    15    48    1
    52    16    49    1
    53    19    50    1
    54    19    51    1
    55    19    52    1
    56    20    53    1
    57    20    54    1
    58    21    55    1
    59    21    56    1
    60    21    57    1
    61    22    58    1
    62    26    59    1
    63    30    60    1
    64    33    61    1
    65    33    62    1
    66    33    63    1
    67    35    64    1
    68    35    65    1
    69    36    66    1
    70    36    67    1
@<TRIPOS>MOLECULE
*****
 67 70 0 0 0
SMALL
GASTEIGER

@<TRIPOS>ATOM
      1 C           3.5086   -3.8563   -4.1505 C.ar    1  LIG1        0.0483
      2 C           4.4643   -4.2035   -3.2257 C.ar    1  LIG1        0.0543
      3 C           5.0309   -3.1563   -2.5369 C.ar    1  LIG1        0.0483
      4 N           4.6914   -1.8626   -2.7308 N.ar    1  LIG1       -0.2022
      5 N           3.1343   -2.5820   -4.3902 N.ar    1  LIG1       -0.2022
      6 C           4.7572   -0.4937   -9.2945 C.ar    1  LIG1       -0.0504
      7 C           5.8934   -0.0798   -8.5957 C.ar    1  LIG1       -0.0583
      8 C           5.8419    1.0354   -7.7526 C.ar    1  LIG1       -0.0535
      9 C           4.6543    1.7657   -7.5811 C.ar    1  LIG1       -0.0094
     10 C           3.5371    1.3734   -8.3390 C.ar    1  LIG1       -0.0535
     11 C           3.5887    0.2643   -9.1901 C.ar    1  LIG1       -0.0583
     12 C           4.5196    3.3471  -12.3954 C.ar    1  LIG1       -0.0561
     13 C           4.2796    4.1256  -11.2587 C.ar    1  LIG1       -0.0348
     14 C           5.2705    4.2475  -10.2876 C.ar    1  LIG1        0.1086
     15 C           6.4959    3.6050  -10.4479 C.ar    1  LIG1       -0.0348
     16 C           6.7261    2.8261  -11.5855 C.ar    1  LIG1       -0.0561
     17 C           6.0110    1.8518  -13.8630 C.3     1  LIG1        0.0132
     18 C           5.7437    2.6716  -12.5815 C.ar    1  LIG1       -0.0394
     19 C           7.1781    0.8472  -13.7048 C.3     1  LIG1       -0.0537
     20 C           4.7658    1.0386  -14.3205 C.3     1  LIG1        0.0533
     21 C           6.3835    2.8449  -14.9841 C.3     1  LIG1       -0.0537
     22 O           4.3813    0.0538  -13.3650 O.3     1  LIG1       -0.3942
     23 S           5.0042    5.3153   -8.8982 S.O2    1  LIG1        0.0735
     24 O           4.4994    6.5643   -9.4325 O.2     1  LIG1       -0.1499
     25 O           6.1902    5.2776   -8.0708 O.2     1  LIG1       -0.1499
     26 N           3.7008    4.5800   -8.1089 N.pl3   1  LIG1       -0.1988
     27 C           4.5427    2.8369   -6.5719 C.ar    1  LIG1        0.0847
     28 C           4.8474    2.6449   -5.2274 C.ar    1  LIG1        0.2276
     29 N           4.6667    3.5630   -4.2538 N.ar    1  LIG1       -0.2008
     30 C           4.1424    4.7278   -4.6432 C.ar    1  LIG1        0.1219
     31 N           3.7832    5.0461   -5.8884 N.ar    1  LIG1       -0.2186
     32 C           4.0129    4.0962   -6.8114 C.ar    1  LIG1        0.1524
     33 C           4.7883   -1.7258  -10.1495 C.3     1  LIG1       -0.0397
     34 O           5.3829    1.4238   -4.8674 O.3     1  LIG1       -0.4724
     35 C           5.3020    1.0850   -3.4805 C.3     1  LIG1        0.1252
     36 C           3.8872    0.6536   -3.0798 C.3     1  LIG1        0.1267
     37 O           3.3540   -0.3508   -3.9465 O.3     1  LIG1       -0.4590
     38 C           3.7508   -1.6359   -3.6647 C.ar    1  LIG1        0.3180
     39 BR          4.9611   -5.9872   -2.9205 Br      1  LIG1       -0.0472
     40 H           2.9946   -4.6026   -4.7491 H       1  LIG1        0.0843
     41 H           5.7980   -3.3196   -1.7857 H       1  LIG1        0.0843
     42 H           6.8204   -0.6447   -8.6695 H       1  LIG1        0.0620
     43 H           6.7352    1.3023   -7.1899 H       1  LIG1        0.0624
     44 H           2.5911    1.9022   -8.2398 H       1  LIG1        0.0624
     45 H           2.6942   -0.0282   -9.7359 H       1  LIG1        0.0620
     46 H           3.7331    3.3021  -13.1449 H       1  LIG1        0.0621
     47 H           3.3320    4.6482  -11.1522 H       1  LIG1        0.0637
     48 H           7.2858    3.7154   -9.7080 H       1  LIG1        0.0637
     49 H           7.7040    2.3602  -11.6766 H       1  LIG1        0.0621
     50 H           8.1410    1.3548  -13.5765 H       1  LIG1        0.0239
     51 H           7.2769    0.2156  -14.5958 H       1  LIG1        0.0239
     52 H           7.0278    0.1850  -12.8444 H       1  LIG1        0.0239
     53 H           4.9828    0.5079  -15.2553 H       1  LIG1        0.0566
     54 H           3.8975    1.6721  -14.5259 H       1  LIG1        0.0566
     55 H           5.5686    3.5493  -15.1873 H       1  LIG1        0.0239
     56 H           6.6076    2.3203  -15.9201 H       1  LIG1        0.0239
     57 H           7.2675    3.4359  -14.7157 H       1  LIG1        0.0239
     58 H           4.3320    0.4937  -12.4965 H       1  LIG1        0.2094
     59 H           2.9689    5.2896   -8.0393 H       1  LIG1        0.1753
     60 H           3.9944    5.4828   -3.8786 H       1  LIG1        0.1049
     61 H           5.5867   -2.4050   -9.8321 H       1  LIG1        0.0278
     62 H           4.9527   -1.4595  -11.1959 H       1  LIG1        0.0278
     63 H           3.8452   -2.2764  -10.0626 H       1  LIG1        0.0278
     64 H           5.6736    1.8926   -2.8384 H       1  LIG1        0.0731
     65 H           5.9990    0.2525   -3.3442 H       1  LIG1        0.0731
     66 H           3.2082    1.5081   -3.1736 H       1  LIG1        0.0732
     67 H           3.8417    0.3490   -2.0267 H       1  LIG1        0.0732
@<TRIPOS>BOND
     1     1     2   ar
     2     2     3   ar
     3     2    39    1
     4     3     4   ar
     5     4    38   ar
     6     5     1   ar
     7     6     7   ar
     8     6    33    1
     9     7     8   ar
    10     8     9   ar
    11     9    10   ar
    12    10    11   ar
    13    11     6   ar
    14    12    13   ar
    15    13    14   ar
    16    14    15   ar
    17    15    16   ar
    18    16    18   ar
    19    17    18    1
    20    17    21    1
    21    17    20    1
    22    17    19    1
    23    18    12   ar
    24    20    22    1
    25    23    26    1
    26    23    25    2
    27    23    24    2
    28    23    14    1
    29    26    32    1
    30    27    28   ar
    31    27     9    1
    32    28    29   ar
    33    29    30   ar
    34    30    31   ar
    35    31    32   ar
    36    32    27   ar
    37    34    35    1
    38    34    28    1
    39    35    36    1
    40    36    37    1
    41    37    38    1
    42    38     5   ar
    43     1    40    1
    44     3    41    1
    45     7    42    1
    46     8    43    1
    47    10    44    1
    48    11    45    1
    49    12    46    1
    50    13    47    1
    51    15    48    1
    52    16    49    1
    53    19    50    1
    54    19    51    1
    55    19    52    1
    56    20    53    1
    57    20    54    1
    58    21    55    1
    59    21    56    1
    60    21    57    1
    61    22    58    1
    62    26    59    1
    63    30    60    1
    64    33    61    1
    65    33    62    1
    66    33    63    1
    67    35    64    1
    68    35    65    1
    69    36    66    1
    70    36    67    1
