@<TRIPOS>MOLECULE
123882
 117 122 0 0 0
SMALL
GASTEIGER

@<TRIPOS>ATOM
      1 S         -19.0229   -4.8030    2.3088 S.2     3  UNK3       -0.0993
      2 O         -11.3739  -10.7949   -4.9711 O.2     1  UNK1       -0.2755
      3 O         -14.2881  -11.1744    4.4046 O.2     4  LEU4       -0.2738
      4 O         -13.5013   -6.8902   -2.5574 O.2     1  UNK1       -0.2737
      5 O         -13.4312   -9.2726    0.8338 O.2     5  TRP5       -0.2738
      6 O         -10.7486   -9.2334   -1.4429 O.2     6  ASP6       -0.2738
      7 O         -17.1117   -7.4616    3.8175 O.2     3  UNK3       -0.2734
      8 O         -16.9307   -9.0237   -0.3121 O.2     2  ASP2       -0.2737
      9 OD1       -10.7482  -14.4539   -0.1348 O.co2   6  ASP6       -0.5497
     10 OD2       -10.7422  -13.0336    1.6570 O.co2   6  ASP6       -0.5497
     11 OD1       -16.3927   -7.4118   -5.0005 O.co2   2  ASP2       -0.5497
     12 OD2       -18.6273   -7.0028   -4.8321 O.co2   2  ASP2       -0.5497
     13 N         -13.1443  -11.4862   -6.2525 N.am    1  UNK1       -0.2984
     14 N         -13.2889  -11.6785   -9.1541 N.pl3   1  UNK1       -0.3269
     15 N         -12.7256  -10.1525   -2.1968 N.am    1  UNK1       -0.3020
     16 N         -13.9038   -9.1532    3.3856 N.am    5  TRP5       -0.3022
     17 N         -16.4010   -9.0124    2.3198 N.am    4  LEU4       -0.3022
     18 N         -11.5265  -10.5191    1.0865 N.am    6  ASP6       -0.3021
     19 N         -15.1535   -8.4837   -2.4802 N.am    2  ASP2       -0.3021
     20 N         -16.5373   -6.8470    0.2154 N.am    3  UNK3       -0.2984
     21 NE1        -8.2028   -8.3054    2.2150 N.ar    5  TRP5       -0.3604
     22 C         -14.3482  -11.0442   -6.9719 C.3     1  UNK1        0.0304
     23 C         -12.3063  -12.4458   -6.9734 C.3     1  UNK1        0.0304
     24 C         -14.5319  -11.7402   -8.3373 C.3     1  UNK1        0.0280
     25 C         -12.0320  -11.9318   -8.3941 C.3     1  UNK1        0.0280
     26 C         -12.5696  -10.7114   -5.2442 C.2     1  UNK1        0.2179
     27 C         -13.5208   -9.7795   -4.5150 C.3     1  UNK1        0.0510
     28 C         -12.9164   -9.1579   -3.2529 C.3     1  UNK1        0.1076
     29 CA        -16.1749  -10.0745    3.3106 C.3     4  LEU4        0.0997
     30 CB        -16.8277  -11.4060    2.8801 C.3     4  LEU4       -0.0236
     31 CA        -12.4819   -9.3689    3.0659 C.3     5  TRP5        0.1034
     32 C         -13.2374  -10.8866  -10.3046 C.ar    1  UNK1        0.0298
     33 CG        -16.3846  -12.0241    1.5320 C.3     4  LEU4       -0.0446
     34 CB        -11.6991   -8.0788    3.3355 C.3     5  TRP5        0.0013
     35 C         -14.6970  -10.2280    3.7373 C.2     4  LEU4        0.2340
     36 CA        -11.6652  -11.1492   -0.2243 C.3     6  ASP6        0.1045
     37 C         -13.8625   -8.0537   -2.7258 C.2     1  UNK1        0.2344
     38 CG        -10.2138   -8.1784    3.1723 C.ar    5  TRP5       -0.0201
     39 C         -12.5289   -9.7091    1.5585 C.2     5  TRP5        0.2343
     40 C         -11.6435  -10.0704   -1.3327 C.2     6  ASP6        0.2343
     41 CA        -16.2291   -7.5697   -2.1350 C.3     2  ASP2        0.1045
     42 CD2       -14.9880  -12.6403    1.5756 C.3     4  LEU4       -0.0626
     43 CD1       -17.3860  -13.1050    1.1057 C.3     4  LEU4       -0.0626
     44 C         -17.3443   -6.8649    1.4343 C.3     3  UNK3        0.1311
     45 C         -12.0321  -10.3547  -10.8012 C.ar    1  UNK1       -0.0407
     46 C         -14.3833  -10.5981  -11.0655 C.ar    1  UNK1       -0.0407
     47 CD2        -9.2147   -8.2471    4.1992 C.ar    5  TRP5        0.0029
     48 C         -16.8907   -7.7635    2.6420 C.2     3  UNK3        0.2390
     49 CB        -10.5415  -12.1380   -0.5084 C.3     6  ASP6        0.0138
     50 CD1        -9.5390   -8.1722    1.9682 C.ar    5  TRP5        0.0060
     51 CE2        -7.9695   -8.3109    3.5699 C.ar    5  TRP5        0.0467
     52 C         -16.5905   -7.8949   -0.6730 C.2     2  ASP2        0.2345
     53 CB        -17.4995   -7.8112   -2.9452 C.3     2  ASP2        0.0138
     54 C         -11.9834   -9.5200  -11.9262 C.ar    1  UNK1       -0.0600
     55 C         -14.3470   -9.7659  -12.1937 C.ar    1  UNK1       -0.0600
     56 C         -17.4729   -5.4328    1.9144 C.ar    3  UNK3        0.0189
     57 CE3        -9.2486   -8.2566    5.6097 C.ar    5  TRP5       -0.0523
     58 C         -13.1463   -9.2138  -12.6167 C.ar    1  UNK1       -0.0616
     59 CZ2        -6.7611   -8.3796    4.2748 C.ar    5  TRP5       -0.0378
     60 CG        -10.6959  -13.3249    0.4254 C.2     6  ASP6        0.0440
     61 CZ3        -8.0490   -8.3179    6.3313 C.ar    5  TRP5       -0.0611
     62 C         -16.4843   -4.4828    2.1091 C.ar    3  UNK3       -0.0493
     63 CH2        -6.8240   -8.3774    5.6708 C.ar    5  TRP5       -0.0598
     64 CG        -17.4936   -7.3521   -4.3942 C.2     2  ASP2        0.0440
     65 C         -17.0039   -3.2453    2.5879 C.ar    3  UNK3       -0.0544
     66 C         -18.3690   -3.2888    2.7538 C.ar    3  UNK3       -0.0240
     67 H         -13.5441  -10.6160   -1.8267 H       1  UNK1        0.1495
     68 H         -14.3658   -8.5466    2.7123 H       5  TRP5        0.1495
     69 H         -16.2525   -9.2261    1.3308 H       4  LEU4        0.1495
     70 H         -11.1080  -11.1587    1.7725 H       6  ASP6        0.1495
     71 H         -15.3793   -9.4661   -2.5051 H       2  ASP2        0.1495
     72 H         -16.3391   -5.9418   -0.1938 H       3  UNK3        0.1498
     73 HE1        -7.4941   -8.3831    1.5003 H       5  TRP5        0.1653
     74 H         -14.2707   -9.9640   -7.1377 H       1  UNK1        0.0480
     75 H         -15.2166  -11.2324   -6.3319 H       1  UNK1        0.0480
     76 H         -12.8458  -13.4002   -7.0015 H       1  UNK1        0.0480
     77 H         -11.3637  -12.6263   -6.4469 H       1  UNK1        0.0480
     78 H         -14.7724  -12.7993   -8.1789 H       1  UNK1        0.0479
     79 H         -15.4091  -11.3034   -8.8193 H       1  UNK1        0.0479
     80 H         -11.4596  -11.0030   -8.2829 H       1  UNK1        0.0479
     81 H         -11.4219  -12.6624   -8.9372 H       1  UNK1        0.0479
     82 H         -14.4232  -10.3505   -4.2664 H       1  UNK1        0.0381
     83 H         -13.8009   -8.9756   -5.2051 H       1  UNK1        0.0381
     84 H         -11.9565   -8.6848   -3.4910 H       1  UNK1        0.0599
     85 HA        -16.6831   -9.7683    4.2348 H       4  LEU4        0.0594
     86 HB1       -17.9097  -11.2223    2.8243 H       4  LEU4        0.0290
     87 HB2       -16.6874  -12.1511    3.6740 H       4  LEU4        0.0290
     88 HA        -12.0927  -10.2206    3.6339 H       5  TRP5        0.0598
     89 HG        -16.3923  -11.2591    0.7515 H       4  LEU4        0.0296
     90 HB1       -11.9191   -7.7415    4.3572 H       5  TRP5        0.0337
     91 HB2       -12.0657   -7.2769    2.6796 H       5  TRP5        0.0337
     92 HA        -12.6330  -11.6654   -0.2323 H       6  ASP6        0.0598
     93 HA        -15.8957   -6.5314   -2.2317 H       2  ASP2        0.0598
     94 HD21      -14.9061  -13.3926    2.3666 H       4  LEU4        0.0232
     95 HD22      -14.2232  -11.8832    1.7431 H       4  LEU4        0.0232
     96 HD23      -14.7487  -13.1266    0.6231 H       4  LEU4        0.0232
     97 HD11      -17.4215  -13.9235    1.8326 H       4  LEU4        0.0232
     98 HD12      -17.1116  -13.5276    0.1327 H       4  LEU4        0.0232
     99 HD13      -18.3943  -12.6884    1.0104 H       4  LEU4        0.0232
    100 H         -18.3317   -7.2505    1.1444 H       3  UNK3        0.0651
    101 H         -11.0852  -10.5545  -10.3098 H       1  UNK1        0.0636
    102 H         -15.3473  -11.0242  -10.8077 H       1  UNK1        0.0636
    103 HB1        -9.5564  -11.6840   -0.3473 H       6  ASP6        0.0348
    104 HB2       -10.5814  -12.4741   -1.5518 H       6  ASP6        0.0348
    105 HD1        -9.9035   -8.1280    0.9476 H       5  TRP5        0.0810
    106 HB1       -18.3340   -7.2989   -2.4453 H       2  ASP2        0.0348
    107 HB2       -17.7543   -8.8792   -2.9501 H       2  ASP2        0.0348
    108 H         -11.0315   -9.1056  -12.2455 H       1  UNK1        0.0618
    109 H         -15.2662   -9.5509  -12.7309 H       1  UNK1        0.0618
    110 HE3       -10.1979   -8.2195    6.1350 H       5  TRP5        0.0624
    111 H         -13.1168   -8.5553  -13.4788 H       1  UNK1        0.0618
    112 HZ2        -5.8099   -8.4378    3.7574 H       5  TRP5        0.0638
    113 HZ3        -8.0788   -8.3271    7.4173 H       5  TRP5        0.0618
    114 H         -15.4327   -4.6710    1.9219 H       3  UNK3        0.0626
    115 HH2        -5.9036   -8.4331    6.2462 H       5  TRP5        0.0618
    116 H         -16.4032   -2.3721    2.8083 H       3  UNK3        0.0623
    117 H         -19.0190   -2.5039    3.1133 H       3  UNK3        0.0693
@<TRIPOS>BOND
     1     1    56   ar
     2     1    66   ar
     3     2    26    2
     4     3    35    2
     5     4    37    2
     6     5    39    2
     7     6    40    2
     8     7    48    2
     9     8    52    2
    10     9    60   ar
    11    10    60   ar
    12    11    64   ar
    13    12    64   ar
    14    13    22    1
    15    13    23    1
    16    14    24    1
    17    14    25    1
    18    14    32    1
    19    15    28    1
    20    15    40   am
    21    16    35   am
    22    16    31    1
    23    17    48   am
    24    17    29    1
    25    18    39   am
    26    18    36    1
    27    19    37   am
    28    19    41    1
    29    20    52   am
    30    20    44    1
    31    21    50   ar
    32    21    51   ar
    33    22    24    1
    34    23    25    1
    35    26    27    1
    36    26    13   am
    37    28    37    1
    38    28    27    1
    39    29    35    1
    40    29    30    1
    41    30    33    1
    42    31    39    1
    43    31    34    1
    44    32    45   ar
    45    32    46   ar
    46    33    43    1
    47    33    42    1
    48    34    38    1
    49    36    40    1
    50    36    49    1
    51    38    47   ar
    52    38    50   ar
    53    41    52    1
    54    41    53    1
    55    44    48    1
    56    44    56    1
    57    45    54   ar
    58    46    55   ar
    59    47    57   ar
    60    47    51   ar
    61    49    60    1
    62    51    59   ar
    63    53    64    1
    64    54    58   ar
    65    55    58   ar
    66    56    62   ar
    67    57    61   ar
    68    59    63   ar
    69    61    63   ar
    70    62    65   ar
    71    65    66   ar
    72    15    67    1
    73    16    68    1
    74    17    69    1
    75    18    70    1
    76    19    71    1
    77    20    72    1
    78    21    73    1
    79    22    74    1
    80    22    75    1
    81    23    76    1
    82    23    77    1
    83    24    78    1
    84    24    79    1
    85    25    80    1
    86    25    81    1
    87    27    82    1
    88    27    83    1
    89    28    84    1
    90    29    85    1
    91    30    86    1
    92    30    87    1
    93    31    88    1
    94    33    89    1
    95    34    90    1
    96    34    91    1
    97    36    92    1
    98    41    93    1
    99    42    94    1
   100    42    95    1
   101    42    96    1
   102    43    97    1
   103    43    98    1
   104    43    99    1
   105    44   100    1
   106    45   101    1
   107    46   102    1
   108    49   103    1
   109    49   104    1
   110    50   105    1
   111    53   106    1
   112    53   107    1
   113    54   108    1
   114    55   109    1
   115    57   110    1
   116    58   111    1
   117    59   112    1
   118    61   113    1
   119    62   114    1
   120    63   115    1
   121    65   116    1
   122    66   117    1
@<TRIPOS>MOLECULE
123882
 117 122 0 0 0
SMALL
GASTEIGER

@<TRIPOS>ATOM
      1 S         -16.0155   -4.7519    2.5780 S.2     3  UNK3       -0.0993
      2 O         -12.8332   -7.7383   -5.7640 O.2     1  UNK1       -0.2755
      3 O         -14.2172  -11.2213    4.3246 O.2     4  LEU4       -0.2738
      4 O         -13.5454   -6.8886   -2.2218 O.2     1  UNK1       -0.2737
      5 O         -13.4313   -9.3022    0.7868 O.2     5  TRP5       -0.2738
      6 O         -10.5774   -9.3404   -1.6244 O.2     6  ASP6       -0.2738
      7 O         -17.5980   -7.7468    3.6621 O.2     3  UNK3       -0.2734
      8 O         -17.0089   -9.0500   -0.4619 O.2     2  ASP2       -0.2737
      9 OD1       -10.6765  -13.0870    1.5712 O.co2   6  ASP6       -0.5497
     10 OD2       -11.1742  -14.3619   -0.2645 O.co2   6  ASP6       -0.5497
     11 OD1       -16.6750   -7.0204   -5.0676 O.co2   2  ASP2       -0.5497
     12 OD2       -18.5682   -6.0098   -4.2943 O.co2   2  ASP2       -0.5497
     13 N         -14.3032   -9.2009   -6.7424 N.am    1  UNK1       -0.2984
     14 N         -16.5690   -9.8049   -8.5477 N.pl3   1  UNK1       -0.3269
     15 N         -12.7112  -10.0049   -2.1846 N.am    1  UNK1       -0.3020
     16 N         -13.8619   -9.1671    3.3583 N.am    5  TRP5       -0.3022
     17 N         -16.3204   -9.0347    2.2859 N.am    4  LEU4       -0.3022
     18 N         -11.4819  -10.4840    1.0150 N.am    6  ASP6       -0.3021
     19 N         -15.2221   -8.3733   -2.6744 N.am    2  ASP2       -0.3021
     20 N         -16.4476   -6.9519    0.2030 N.am    3  UNK3       -0.2984
     21 NE1        -8.1647   -8.2698    2.1949 N.ar    5  TRP5       -0.3604
     22 C         -14.9006  -10.5362   -6.8599 C.3     1  UNK1        0.0304
     23 C         -14.7487   -8.2159   -7.7341 C.3     1  UNK1        0.0304
     24 C         -15.4932  -10.7757   -8.2602 C.3     1  UNK1        0.0280
     25 C         -16.2326   -8.4004   -8.1203 C.3     1  UNK1        0.0280
     26 C         -13.4869   -8.7791   -5.7031 C.2     1  UNK1        0.2179
     27 C         -13.3651   -9.7215   -4.5215 C.3     1  UNK1        0.0510
     28 C         -12.9010   -9.0095   -3.2481 C.3     1  UNK1        0.1076
     29 CA        -16.1171  -10.1132    3.2626 C.3     4  LEU4        0.0997
     30 CB        -16.7762  -11.4328    2.8123 C.3     4  LEU4       -0.0236
     31 CA        -12.4461   -9.3621    3.0106 C.3     5  TRP5        0.1034
     32 C         -17.9198  -10.1525   -8.3491 C.ar    1  UNK1        0.0298
     33 CG        -16.3307  -12.0253    1.4543 C.3     4  LEU4       -0.0446
     34 CB        -11.6745   -8.0657    3.2769 C.3     5  TRP5        0.0013
     35 C         -14.6389  -10.2637    3.6818 C.2     4  LEU4        0.2340
     36 CA        -11.6216  -11.1148   -0.2959 C.3     6  ASP6        0.1045
     37 C         -13.9047   -7.9611   -2.7083 C.2     1  UNK1        0.2344
     38 CG        -10.1876   -8.1611    3.1289 C.ar    5  TRP5       -0.0201
     39 C         -12.5046   -9.7028    1.5003 C.2     5  TRP5        0.2343
     40 C         -11.5593  -10.0508   -1.4176 C.2     6  ASP6        0.2343
     41 CA        -16.2924   -7.5029   -2.2070 C.3     2  ASP2        0.1045
     42 CD2       -14.9421  -12.6605    1.4963 C.3     4  LEU4       -0.0626
     43 CD1       -17.3416  -13.0848    0.9979 C.3     4  LEU4       -0.0626
     44 C         -17.3275   -6.9359    1.3644 C.3     3  UNK3        0.1311
     45 C         -18.9420   -9.2054   -8.5615 C.ar    1  UNK1       -0.0407
     46 C         -18.3469  -11.4325   -7.9584 C.ar    1  UNK1       -0.0407
     47 CD2        -9.2011   -8.2367    4.1674 C.ar    5  TRP5        0.0029
     48 C         -17.0668   -7.9091    2.5599 C.2     3  UNK3        0.2390
     49 CB        -10.5141  -12.1257   -0.5598 C.3     6  ASP6        0.0138
     50 CD1        -9.4990   -8.1441    1.9315 C.ar    5  TRP5        0.0060
     51 CE2        -7.9484   -8.2902    3.5517 C.ar    5  TRP5        0.0467
     52 C         -16.6095   -7.9232   -0.7581 C.2     2  ASP2        0.2345
     53 CB        -17.5814   -7.6969   -2.9998 C.3     2  ASP2        0.0138
     54 C         -20.2949   -9.4955   -8.3445 C.ar    1  UNK1       -0.0600
     55 C         -19.7009  -11.7355   -7.7466 C.ar    1  UNK1       -0.0600
     56 C         -17.3880   -5.5104    1.8747 C.ar    3  UNK3        0.0189
     57 CE3        -9.2513   -8.2594    5.5775 C.ar    5  TRP5       -0.0523
     58 C         -20.6753  -10.7638   -7.9314 C.ar    1  UNK1       -0.0616
     59 CZ2        -6.7486   -8.3613    4.2707 C.ar    5  TRP5       -0.0378
     60 CG        -10.8166  -13.3114    0.3336 C.2     6  ASP6        0.0440
     61 CZ3        -8.0601   -8.3241    6.3126 C.ar    5  TRP5       -0.0611
     62 C         -18.4701   -4.6488    1.8373 C.ar    3  UNK3       -0.0493
     63 CH2        -6.8277   -8.3731    5.6658 C.ar    5  TRP5       -0.0598
     64 CG        -17.5972   -6.8166   -4.2338 C.2     2  ASP2        0.0440
     65 C         -18.1768   -3.3767    2.4060 C.ar    3  UNK3       -0.0544
     66 C         -16.8771   -3.3004    2.8517 C.ar    3  UNK3       -0.0240
     67 H         -13.5483  -10.3126   -1.7005 H       1  UNK1        0.1495
     68 H         -14.3394   -8.5346    2.7202 H       5  TRP5        0.1495
     69 H         -16.0066   -9.1774    1.3239 H       4  LEU4        0.1495
     70 H         -11.0322  -11.1008    1.6990 H       6  ASP6        0.1495
     71 H         -15.4799   -9.3183   -2.9105 H       2  ASP2        0.1495
     72 H         -16.0842   -6.0603   -0.1170 H       3  UNK3        0.1498
     73 HE1        -7.4462   -8.3320    1.4881 H       5  TRP5        0.1653
     74 H         -15.6844  -10.6204   -6.0987 H       1  UNK1        0.0480
     75 H         -14.1290  -11.2825   -6.6440 H       1  UNK1        0.0480
     76 H         -14.1136   -8.3488   -8.6186 H       1  UNK1        0.0480
     77 H         -14.5866   -7.1969   -7.3670 H       1  UNK1        0.0480
     78 H         -14.7063  -10.6292   -9.0125 H       1  UNK1        0.0479
     79 H         -15.7958  -11.8180   -8.3863 H       1  UNK1        0.0479
     80 H         -16.8402   -8.1283   -7.2525 H       1  UNK1        0.0479
     81 H         -16.4674   -7.7117   -8.9401 H       1  UNK1        0.0479
     82 H         -12.6332  -10.4917   -4.7974 H       1  UNK1        0.0381
     83 H         -14.3137  -10.2361   -4.3463 H       1  UNK1        0.0381
     84 H         -11.9559   -8.4886   -3.4410 H       1  UNK1        0.0599
     85 HA        -16.6208   -9.8199    4.1932 H       4  LEU4        0.0594
     86 HB1       -17.8574  -11.2438    2.7585 H       4  LEU4        0.0290
     87 HB2       -16.6392  -12.1922    3.5932 H       4  LEU4        0.0290
     88 HA        -12.0383  -10.2107    3.5701 H       5  TRP5        0.0598
     89 HG        -16.3229  -11.2407    0.6927 H       4  LEU4        0.0296
     90 HB1       -11.9039   -7.7218    4.2946 H       5  TRP5        0.0337
     91 HB2       -12.0406   -7.2715    2.6120 H       5  TRP5        0.0337
     92 HA        -12.6013  -11.6093   -0.3166 H       6  ASP6        0.0598
     93 HA        -15.9638   -6.4579   -2.2329 H       2  ASP2        0.0598
     94 HD21      -14.8770  -13.4302    2.2720 H       4  LEU4        0.0232
     95 HD22      -14.1681  -11.9180    1.6864 H       4  LEU4        0.0232
     96 HD23      -14.7009  -13.1300    0.5359 H       4  LEU4        0.0232
     97 HD11      -17.3922  -13.9178    1.7074 H       4  LEU4        0.0232
     98 HD12      -17.0646  -13.4904    0.0185 H       4  LEU4        0.0232
     99 HD13      -18.3442  -12.6545    0.9042 H       4  LEU4        0.0232
    100 H         -18.3266   -7.2135    0.9988 H       3  UNK3        0.0651
    101 H         -18.6973   -8.1958   -8.8818 H       1  UNK1        0.0636
    102 H         -17.6442  -12.2340   -7.7681 H       1  UNK1        0.0636
    103 HB1        -9.5230  -11.7218   -0.3231 H       6  ASP6        0.0348
    104 HB2       -10.5063  -12.4361   -1.6112 H       6  ASP6        0.0348
    105 HD1        -9.8532   -8.0909    0.9081 H       5  TRP5        0.0810
    106 HB1       -18.4492   -7.4302   -2.3810 H       2  ASP2        0.0348
    107 HB2       -17.7209   -8.7417   -3.3028 H       2  ASP2        0.0348
    108 H         -21.0379   -8.7150   -8.4806 H       1  UNK1        0.0618
    109 H         -19.9828  -12.7309   -7.4155 H       1  UNK1        0.0618
    110 HE3       -10.2067   -8.2292    6.0924 H       5  TRP5        0.0624
    111 H         -21.7201  -10.9876   -7.7419 H       1  UNK1        0.0618
    112 HZ2        -5.7908   -8.4097    3.7644 H       5  TRP5        0.0638
    113 HZ3        -8.1025   -8.3427    7.3981 H       5  TRP5        0.0618
    114 H         -19.4323   -4.9240    1.4209 H       3  UNK3        0.0626
    115 HH2        -5.9138   -8.4292    6.2513 H       5  TRP5        0.0618
    116 H         -18.8837   -2.5602    2.4808 H       3  UNK3        0.0623
    117 H         -16.3860   -2.4602    3.3218 H       3  UNK3        0.0693
@<TRIPOS>BOND
     1     1    56   ar
     2     1    66   ar
     3     2    26    2
     4     3    35    2
     5     4    37    2
     6     5    39    2
     7     6    40    2
     8     7    48    2
     9     8    52    2
    10     9    60   ar
    11    10    60   ar
    12    11    64   ar
    13    12    64   ar
    14    13    22    1
    15    13    23    1
    16    14    24    1
    17    14    25    1
    18    14    32    1
    19    15    28    1
    20    15    40   am
    21    16    35   am
    22    16    31    1
    23    17    48   am
    24    17    29    1
    25    18    39   am
    26    18    36    1
    27    19    37   am
    28    19    41    1
    29    20    52   am
    30    20    44    1
    31    21    50   ar
    32    21    51   ar
    33    22    24    1
    34    23    25    1
    35    26    27    1
    36    26    13   am
    37    28    37    1
    38    28    27    1
    39    29    35    1
    40    29    30    1
    41    30    33    1
    42    31    39    1
    43    31    34    1
    44    32    45   ar
    45    32    46   ar
    46    33    43    1
    47    33    42    1
    48    34    38    1
    49    36    40    1
    50    36    49    1
    51    38    47   ar
    52    38    50   ar
    53    41    52    1
    54    41    53    1
    55    44    48    1
    56    44    56    1
    57    45    54   ar
    58    46    55   ar
    59    47    57   ar
    60    47    51   ar
    61    49    60    1
    62    51    59   ar
    63    53    64    1
    64    54    58   ar
    65    55    58   ar
    66    56    62   ar
    67    57    61   ar
    68    59    63   ar
    69    61    63   ar
    70    62    65   ar
    71    65    66   ar
    72    15    67    1
    73    16    68    1
    74    17    69    1
    75    18    70    1
    76    19    71    1
    77    20    72    1
    78    21    73    1
    79    22    74    1
    80    22    75    1
    81    23    76    1
    82    23    77    1
    83    24    78    1
    84    24    79    1
    85    25    80    1
    86    25    81    1
    87    27    82    1
    88    27    83    1
    89    28    84    1
    90    29    85    1
    91    30    86    1
    92    30    87    1
    93    31    88    1
    94    33    89    1
    95    34    90    1
    96    34    91    1
    97    36    92    1
    98    41    93    1
    99    42    94    1
   100    42    95    1
   101    42    96    1
   102    43    97    1
   103    43    98    1
   104    43    99    1
   105    44   100    1
   106    45   101    1
   107    46   102    1
   108    49   103    1
   109    49   104    1
   110    50   105    1
   111    53   106    1
   112    53   107    1
   113    54   108    1
   114    55   109    1
   115    57   110    1
   116    58   111    1
   117    59   112    1
   118    61   113    1
   119    62   114    1
   120    63   115    1
   121    65   116    1
   122    66   117    1
@<TRIPOS>MOLECULE
123882
 117 122 0 0 0
SMALL
GASTEIGER

@<TRIPOS>ATOM
      1 S         -19.0083   -4.8143    2.3564 S.2     3  UNK3       -0.0993
      2 O         -11.3962  -10.6166   -5.1824 O.2     1  UNK1       -0.2755
      3 O         -14.2492  -11.1857    4.3862 O.2     4  LEU4       -0.2738
      4 O         -13.5877   -6.7687   -2.8467 O.2     1  UNK1       -0.2737
      5 O         -13.4404   -9.1787    0.8357 O.2     5  TRP5       -0.2738
      6 O         -10.8366   -9.0785   -1.4304 O.2     6  ASP6       -0.2738
      7 O         -17.0836   -7.4742    3.8437 O.2     3  UNK3       -0.2734
      8 O         -16.9768   -9.0181   -0.2918 O.2     2  ASP2       -0.2737
      9 OD1       -10.6851  -12.9874    1.5607 O.co2   6  ASP6       -0.5497
     10 OD2       -11.2454  -14.3246   -0.2087 O.co2   6  ASP6       -0.5497
     11 OD1       -16.5934   -8.2160   -5.1140 O.co2   2  ASP2       -0.5497
     12 OD2       -17.9980   -6.4545   -4.6960 O.co2   2  ASP2       -0.5497
     13 N         -13.1834  -11.2972   -6.4279 N.am    1  UNK1       -0.2984
     14 N         -14.5307  -13.6553   -7.5046 N.pl3   1  UNK1       -0.3269
     15 N         -12.7030  -10.0841   -2.3298 N.am    1  UNK1       -0.3020
     16 N         -13.8838   -9.1494    3.3924 N.am    5  TRP5       -0.3022
     17 N         -16.3842   -9.0186    2.3336 N.am    4  LEU4       -0.3022
     18 N         -11.5497  -10.4565    1.0255 N.am    6  ASP6       -0.3021
     19 N         -15.0916   -8.4464   -2.4105 N.am    2  ASP2       -0.3021
     20 N         -16.5300   -6.8550    0.2414 N.am    3  UNK3       -0.2984
     21 NE1        -8.1844   -8.2915    2.2223 N.ar    5  TRP5       -0.3604
     22 C         -12.4168  -12.4304   -6.9436 C.3     1  UNK1        0.0304
     23 C         -14.5806  -11.2185   -6.8783 C.3     1  UNK1        0.0304
     24 C         -13.1758  -13.2843   -7.9774 C.3     1  UNK1        0.0280
     25 C         -15.2596  -12.5939   -6.7582 C.3     1  UNK1        0.0280
     26 C         -12.6020  -10.5382   -5.4180 C.2     1  UNK1        0.2179
     27 C         -13.5297   -9.6393   -4.6289 C.3     1  UNK1        0.0510
     28 C         -12.9012   -9.0568   -3.3591 C.3     1  UNK1        0.1076
     29 CA        -16.1487  -10.0868    3.3150 C.3     4  LEU4        0.0997
     30 CB        -16.7965  -11.4181    2.8754 C.3     4  LEU4       -0.0236
     31 CA        -12.4651   -9.3526    3.0504 C.3     5  TRP5        0.1034
     32 C         -14.9039  -14.9899   -7.3508 C.ar    1  UNK1        0.0298
     33 CG        -16.3548  -12.0229    1.5206 C.3     4  LEU4       -0.0446
     34 CB        -11.6813   -8.0688    3.3436 C.3     5  TRP5        0.0013
     35 C         -14.6678  -10.2348    3.7321 C.2     4  LEU4        0.2340
     36 CA        -11.7279  -11.0591   -0.2953 C.3     6  ASP6        0.1045
     37 C         -13.8598   -7.9679   -2.8160 C.2     1  UNK1        0.2344
     38 CG        -10.1960   -8.1683    3.1788 C.ar    5  TRP5       -0.0201
     39 C         -12.5339   -9.6472    1.5347 C.2     5  TRP5        0.2343
     40 C         -11.6921   -9.9621   -1.3880 C.2     6  ASP6        0.2343
     41 CA        -16.2225   -7.5830   -2.1080 C.3     2  ASP2        0.1045
     42 CD2       -14.9569  -12.6367    1.5558 C.3     4  LEU4       -0.0626
     43 CD1       -17.3554  -13.1018    1.0862 C.3     4  LEU4       -0.0626
     44 C         -17.3322   -6.8690    1.4639 C.3     3  UNK3        0.1311
     45 C         -15.9310  -15.3862   -6.4743 C.ar    1  UNK1       -0.0407
     46 C         -14.2982  -16.0270   -8.0818 C.ar    1  UNK1       -0.0407
     47 CD2        -9.1974   -8.2388    4.2063 C.ar    5  TRP5        0.0029
     48 C         -16.8717   -7.7714    2.6654 C.2     3  UNK3        0.2390
     49 CB        -10.6440  -12.0829   -0.6041 C.3     6  ASP6        0.0138
     50 CD1        -9.5206   -8.1598    1.9749 C.ar    5  TRP5        0.0060
     51 CE2        -7.9518   -8.3000    3.5770 C.ar    5  TRP5        0.0467
     52 C         -16.6117   -7.8967   -0.6521 C.2     2  ASP2        0.2345
     53 CB        -17.4515   -7.9167   -2.9449 C.3     2  ASP2        0.0138
     54 C         -16.2824  -16.7300   -6.2840 C.ar    1  UNK1       -0.0600
     55 C         -14.6406  -17.3752   -7.8995 C.ar    1  UNK1       -0.0600
     56 C         -17.4595   -5.4379    1.9458 C.ar    3  UNK3        0.0189
     57 CE3        -9.2318   -8.2510    5.6168 C.ar    5  TRP5       -0.0523
     58 C         -15.6272  -17.7285   -6.9897 C.ar    1  UNK1       -0.0616
     59 CZ2        -6.7442   -8.3686    4.2829 C.ar    5  TRP5       -0.0378
     60 CG        -10.8791  -13.2493    0.3372 C.2     6  ASP6        0.0440
     61 CZ3        -8.0327   -8.3125    6.3391 C.ar    5  TRP5       -0.0611
     62 C         -16.4733   -4.4838    2.1300 C.ar    3  UNK3       -0.0493
     63 CH2        -6.8078   -8.3690    5.6789 C.ar    5  TRP5       -0.0598
     64 CG        -17.3117   -7.4685   -4.3852 C.2     2  ASP2        0.0440
     65 C         -16.9934   -3.2477    2.6120 C.ar    3  UNK3       -0.0544
     66 C         -18.3566   -3.2967    2.7920 C.ar    3  UNK3       -0.0240
     67 H         -13.4804  -10.6799   -2.0821 H       1  UNK1        0.1495
     68 H         -14.3563   -8.5351    2.7336 H       5  TRP5        0.1495
     69 H         -16.2429   -9.2265    1.3428 H       4  LEU4        0.1495
     70 H         -11.0997  -11.0968    1.6903 H       6  ASP6        0.1495
     71 H         -15.2687   -9.4394   -2.4042 H       2  ASP2        0.1495
     72 H         -16.3197   -5.9511   -0.1643 H       3  UNK3        0.1498
     73 HE1        -7.4746   -8.3657    1.5078 H       5  TRP5        0.1653
     74 H         -12.1498  -13.0586   -6.0841 H       1  UNK1        0.0480
     75 H         -11.4835  -12.0530   -7.3767 H       1  UNK1        0.0480
     76 H         -14.5575  -10.8973   -7.9268 H       1  UNK1        0.0480
     77 H         -15.1503  -10.4666   -6.3310 H       1  UNK1        0.0480
     78 H         -13.2899  -12.7158   -8.9088 H       1  UNK1        0.0479
     79 H         -12.5417  -14.1431   -8.2129 H       1  UNK1        0.0479
     80 H         -15.2910  -12.8457   -5.6909 H       1  UNK1        0.0479
     81 H         -16.2857  -12.5215   -7.1368 H       1  UNK1        0.0479
     82 H         -14.4145  -10.2245   -4.3522 H       1  UNK1        0.0381
     83 H         -13.8380   -8.8251   -5.2952 H       1  UNK1        0.0381
     84 H         -11.9400   -8.5794   -3.5812 H       1  UNK1        0.0599
     85 HA        -16.6544   -9.7904    4.2436 H       4  LEU4        0.0594
     86 HB1       -17.8796  -11.2389    2.8245 H       4  LEU4        0.0290
     87 HB2       -16.6504  -12.1693    3.6626 H       4  LEU4        0.0290
     88 HA        -12.0672  -10.2195    3.5885 H       5  TRP5        0.0598
     89 HG        -16.3652  -11.2511    0.7468 H       4  LEU4        0.0296
     90 HB1       -11.9009   -7.7497    4.3713 H       5  TRP5        0.0337
     91 HB2       -12.0463   -7.2545    2.7022 H       5  TRP5        0.0337
     92 HA        -12.7159  -11.5365   -0.2973 H       6  ASP6        0.0598
     93 HA        -15.9415   -6.5306   -2.2181 H       2  ASP2        0.0598
     94 HD21      -14.8716  -13.3947    2.3410 H       4  LEU4        0.0232
     95 HD22      -14.1930  -11.8789    1.7268 H       4  LEU4        0.0232
     96 HD23      -14.7192  -13.1157    0.5992 H       4  LEU4        0.0232
     97 HD11      -17.3891  -13.9263    1.8061 H       4  LEU4        0.0232
     98 HD12      -17.0817  -13.5156    0.1093 H       4  LEU4        0.0232
     99 HD13      -18.3644  -12.6855    0.9955 H       4  LEU4        0.0232
    100 H         -18.3219   -7.2536    1.1796 H       3  UNK3        0.0651
    101 H         -16.4789  -14.6552   -5.8872 H       1  UNK1        0.0636
    102 H         -13.5444  -15.8116   -8.8317 H       1  UNK1        0.0636
    103 HB1        -9.6400  -11.6748   -0.4396 H       6  ASP6        0.0348
    104 HB2       -10.7005  -12.4158   -1.6471 H       6  ASP6        0.0348
    105 HD1        -9.8847   -8.1124    0.9542 H       5  TRP5        0.0810
    106 HB1       -18.3363   -7.4271   -2.5124 H       2  ASP2        0.0348
    107 HB2       -17.6633   -8.9926   -2.9355 H       2  ASP2        0.0348
    108 H         -17.0620  -16.9839   -5.5709 H       1  UNK1        0.0618
    109 H         -14.1275  -18.1430   -8.4713 H       1  UNK1        0.0618
    110 HE3       -10.1814   -8.2158    6.1418 H       5  TRP5        0.0624
    111 H         -15.8864  -18.7706   -6.8331 H       1  UNK1        0.0618
    112 HZ2        -5.7924   -8.4242    3.7661 H       5  TRP5        0.0638
    113 HZ3        -8.0633   -8.3235    7.4249 H       5  TRP5        0.0618
    114 H         -15.4228   -4.6673    1.9318 H       3  UNK3        0.0626
    115 HH2        -5.8876   -8.4235    6.2544 H       5  TRP5        0.0618
    116 H         -16.3943   -2.3711    2.8241 H       3  UNK3        0.0623
    117 H         -19.0062   -2.5139    3.1564 H       3  UNK3        0.0693
@<TRIPOS>BOND
     1     1    56   ar
     2     1    66   ar
     3     2    26    2
     4     3    35    2
     5     4    37    2
     6     5    39    2
     7     6    40    2
     8     7    48    2
     9     8    52    2
    10     9    60   ar
    11    10    60   ar
    12    11    64   ar
    13    12    64   ar
    14    13    22    1
    15    13    23    1
    16    14    24    1
    17    14    25    1
    18    14    32    1
    19    15    28    1
    20    15    40   am
    21    16    35   am
    22    16    31    1
    23    17    48   am
    24    17    29    1
    25    18    39   am
    26    18    36    1
    27    19    37   am
    28    19    41    1
    29    20    52   am
    30    20    44    1
    31    21    50   ar
    32    21    51   ar
    33    22    24    1
    34    23    25    1
    35    26    27    1
    36    26    13   am
    37    28    37    1
    38    28    27    1
    39    29    35    1
    40    29    30    1
    41    30    33    1
    42    31    39    1
    43    31    34    1
    44    32    45   ar
    45    32    46   ar
    46    33    43    1
    47    33    42    1
    48    34    38    1
    49    36    40    1
    50    36    49    1
    51    38    47   ar
    52    38    50   ar
    53    41    52    1
    54    41    53    1
    55    44    48    1
    56    44    56    1
    57    45    54   ar
    58    46    55   ar
    59    47    57   ar
    60    47    51   ar
    61    49    60    1
    62    51    59   ar
    63    53    64    1
    64    54    58   ar
    65    55    58   ar
    66    56    62   ar
    67    57    61   ar
    68    59    63   ar
    69    61    63   ar
    70    62    65   ar
    71    65    66   ar
    72    15    67    1
    73    16    68    1
    74    17    69    1
    75    18    70    1
    76    19    71    1
    77    20    72    1
    78    21    73    1
    79    22    74    1
    80    22    75    1
    81    23    76    1
    82    23    77    1
    83    24    78    1
    84    24    79    1
    85    25    80    1
    86    25    81    1
    87    27    82    1
    88    27    83    1
    89    28    84    1
    90    29    85    1
    91    30    86    1
    92    30    87    1
    93    31    88    1
    94    33    89    1
    95    34    90    1
    96    34    91    1
    97    36    92    1
    98    41    93    1
    99    42    94    1
   100    42    95    1
   101    42    96    1
   102    43    97    1
   103    43    98    1
   104    43    99    1
   105    44   100    1
   106    45   101    1
   107    46   102    1
   108    49   103    1
   109    49   104    1
   110    50   105    1
   111    53   106    1
   112    53   107    1
   113    54   108    1
   114    55   109    1
   115    57   110    1
   116    58   111    1
   117    59   112    1
   118    61   113    1
   119    62   114    1
   120    63   115    1
   121    65   116    1
   122    66   117    1
@<TRIPOS>MOLECULE
123882
 117 122 0 0 0
SMALL
GASTEIGER

@<TRIPOS>ATOM
      1 S         -16.1293   -4.6578    2.8178 S.2     3  UNK3       -0.0993
      2 O         -11.3142  -10.8944   -4.9205 O.2     1  UNK1       -0.2755
      3 O         -14.6501  -11.2762    4.4514 O.2     4  LEU4       -0.2738
      4 O         -13.3759   -6.8671   -2.7524 O.2     1  UNK1       -0.2737
      5 O         -13.6405   -9.4526    0.9886 O.2     5  TRP5       -0.2738
      6 O         -10.9086   -9.0984   -1.1816 O.2     6  ASP6       -0.2738
      7 O         -17.7233   -7.5608    3.6887 O.2     3  UNK3       -0.2734
      8 O         -16.6748   -8.9926   -0.2651 O.2     2  ASP2       -0.2737
      9 OD1       -10.8193  -14.3997    0.0404 O.co2   6  ASP6       -0.5497
     10 OD2       -10.6349  -12.9406    1.7933 O.co2   6  ASP6       -0.5497
     11 OD1       -16.4882   -7.6181   -5.0118 O.co2   2  ASP2       -0.5497
     12 OD2       -18.4457   -6.5432   -4.5376 O.co2   2  ASP2       -0.5497
     13 N         -13.0420  -11.4234   -6.3257 N.am    1  UNK1       -0.2984
     14 N         -13.4385  -11.8479   -9.1820 N.pl3   1  UNK1       -0.3269
     15 N         -12.6800  -10.1818   -2.1721 N.am    1  UNK1       -0.3020
     16 N         -14.1222   -9.2430    3.5280 N.am    5  TRP5       -0.3022
     17 N         -16.4948   -8.9428    2.3688 N.am    4  LEU4       -0.3022
     18 N         -11.6433  -10.5431    1.2303 N.am    6  ASP6       -0.3021
     19 N         -15.0206   -8.4423   -2.4640 N.am    2  ASP2       -0.3021
     20 N         -16.3574   -6.8069    0.2799 N.am    3  UNK3       -0.2984
     21 NE1       -12.3208   -7.0325    6.9241 N.ar    5  TRP5       -0.3604
     22 C         -14.3044  -11.0305   -6.9728 C.3     1  UNK1        0.0304
     23 C         -12.2393  -12.4175   -7.0414 C.3     1  UNK1        0.0304
     24 C         -14.5960  -11.8296   -8.2571 C.3     1  UNK1        0.0280
     25 C         -12.1138  -12.0659   -8.5322 C.3     1  UNK1        0.0280
     26 C         -12.4868  -10.7339   -5.2513 C.2     1  UNK1        0.2179
     27 C         -13.4256   -9.7987   -4.5132 C.3     1  UNK1        0.0510
     28 C         -12.8159   -9.1917   -3.2450 C.3     1  UNK1        0.1076
     29 CA        -16.4379  -10.0580    3.3158 C.3     4  LEU4        0.0997
     30 CB        -16.9434  -11.3650    2.6683 C.3     4  LEU4       -0.0236
     31 CA        -12.7184   -9.5587    3.2347 C.3     5  TRP5        0.1034
     32 C         -13.3815  -10.9425  -10.2518 C.ar    1  UNK1        0.0298
     33 CG        -18.4567  -11.5011    2.3950 C.3     4  LEU4       -0.0446
     34 CB        -11.7817   -8.3823    3.5340 C.3     5  TRP5        0.0013
     35 C         -14.9872  -10.2809    3.8142 C.2     4  LEU4        0.2340
     36 CA        -11.7411  -11.1348   -0.1059 C.3     6  ASP6        0.1045
     37 C         -13.7357   -8.0428   -2.7725 C.2     1  UNK1        0.2344
     38 CG        -11.7664   -7.9879    4.9862 C.ar    5  TRP5       -0.0201
     39 C         -12.7235   -9.8480    1.7171 C.2     5  TRP5        0.2343
     40 C         -11.7216  -10.0219   -1.1825 C.2     6  ASP6        0.2343
     41 CA        -16.0640   -7.5080   -2.0817 C.3     2  ASP2        0.1045
     42 CD2       -19.3069  -11.2285    3.6332 C.3     4  LEU4       -0.0626
     43 CD1       -18.9491  -10.6709    1.2127 C.3     4  LEU4       -0.0626
     44 C         -17.3068   -6.7894    1.3893 C.3     3  UNK3        0.1311
     45 C         -14.1696   -9.7865  -10.3330 C.ar    1  UNK1       -0.0407
     46 C         -12.4857  -11.1780  -11.3111 C.ar    1  UNK1       -0.0407
     47 CD2       -10.8798   -8.4625    6.0072 C.ar    5  TRP5        0.0029
     48 C         -17.1531   -7.7605    2.6127 C.2     3  UNK3        0.2390
     49 CB        -10.5951  -12.0957   -0.3994 C.3     6  ASP6        0.0138
     50 CD1       -12.6288   -7.0945    5.5941 C.ar    5  TRP5        0.0060
     51 CE2       -11.2483   -7.8454    7.2048 C.ar    5  TRP5        0.0467
     52 C         -16.3730   -7.8491   -0.6154 C.2     2  ASP2        0.2345
     53 CB        -17.3768   -7.7323   -2.8264 C.3     2  ASP2        0.0138
     54 C         -14.0533   -8.8953  -11.4070 C.ar    1  UNK1       -0.0600
     55 C         -12.3667  -10.2947  -12.3890 C.ar    1  UNK1       -0.0600
     56 C         -17.3854   -5.3557    1.8747 C.ar    3  UNK3        0.0189
     57 CE3        -9.8013   -9.3704    6.0279 C.ar    5  TRP5       -0.0523
     58 C         -13.1504   -9.1479  -12.4342 C.ar    1  UNK1       -0.0616
     59 CZ2       -10.5930   -8.0885    8.4189 C.ar    5  TRP5       -0.0378
     60 CG        -10.6939  -13.2619    0.5679 C.2     6  ASP6        0.0440
     61 CZ3        -9.1321   -9.6220    7.2323 C.ar    5  TRP5       -0.0611
     62 C         -18.3830   -4.4336    1.6111 C.ar    3  UNK3       -0.0493
     63 CH2        -9.5240   -8.9890    8.4096 C.ar    5  TRP5       -0.0598
     64 CG        -17.4210   -7.2324   -4.2583 C.2     2  ASP2        0.0440
     65 C         -18.1337   -3.1701    2.2186 C.ar    3  UNK3       -0.0544
     66 C         -16.9486   -3.1608    2.9180 C.ar    3  UNK3       -0.0240
     67 H         -13.4607  -10.7854   -1.9551 H       1  UNK1        0.1495
     68 H         -14.5246   -8.5694    2.8831 H       5  TRP5        0.1495
     69 H         -16.1463   -9.1155    1.4206 H       4  LEU4        0.1495
     70 H         -11.1918  -11.1866    1.8931 H       6  ASP6        0.1495
     71 H         -15.2206   -9.4227   -2.3319 H       2  ASP2        0.1495
     72 H         -16.1024   -5.9061   -0.1076 H       3  UNK3        0.1498
     73 HE1       -12.8158   -6.4787    7.6075 H       5  TRP5        0.1653
     74 H         -14.2372   -9.9625   -7.2056 H       1  UNK1        0.0480
     75 H         -15.1201  -11.1707   -6.2561 H       1  UNK1        0.0480
     76 H         -12.7449  -13.3834   -6.9209 H       1  UNK1        0.0480
     77 H         -11.2435  -12.5228   -6.5999 H       1  UNK1        0.0480
     78 H         -14.8039  -12.8722   -7.9815 H       1  UNK1        0.0479
     79 H         -15.5141  -11.4783   -8.7414 H       1  UNK1        0.0479
     80 H         -11.4982  -11.1591   -8.6091 H       1  UNK1        0.0479
     81 H         -11.5886  -12.8782   -9.0478 H       1  UNK1        0.0479
     82 H         -14.3334  -10.3602   -4.2615 H       1  UNK1        0.0381
     83 H         -13.7001   -8.9902   -5.2010 H       1  UNK1        0.0381
     84 H         -11.8308   -8.7608   -3.4601 H       1  UNK1        0.0599
     85 HA        -17.0213   -9.8152    4.2093 H       4  LEU4        0.0594
     86 HB1       -16.6715  -12.2056    3.3211 H       4  LEU4        0.0290
     87 HB2       -16.3962  -11.5393    1.7310 H       4  LEU4        0.0290
     88 HA        -12.4156  -10.4616    3.7768 H       5  TRP5        0.0598
     89 HG        -18.6201  -12.5521    2.1184 H       4  LEU4        0.0296
     90 HB1       -12.0761   -7.5082    2.9367 H       5  TRP5        0.0337
     91 HB2       -10.7608   -8.6288    3.2163 H       5  TRP5        0.0337
     92 HA        -12.6994  -11.6692   -0.1505 H       6  ASP6        0.0598
     93 HA        -15.7192   -6.4741   -2.1822 H       2  ASP2        0.0598
     94 HD21      -19.2825  -10.1724    3.9186 H       4  LEU4        0.0232
     95 HD22      -18.9593  -11.8251    4.4828 H       4  LEU4        0.0232
     96 HD23      -20.3526  -11.4947    3.4447 H       4  LEU4        0.0232
     97 HD11      -18.9280   -9.5993    1.4223 H       4  LEU4        0.0232
     98 HD12      -19.9853  -10.9305    0.9692 H       4  LEU4        0.0232
     99 HD13      -18.3474  -10.8695    0.3207 H       4  LEU4        0.0232
    100 H         -18.2802   -7.0584    0.9534 H       3  UNK3        0.0651
    101 H         -14.8680   -9.5236   -9.5438 H       1  UNK1        0.0636
    102 H         -11.8719  -12.0751  -11.3059 H       1  UNK1        0.0636
    103 HB1        -9.6207  -11.6092   -0.2728 H       6  ASP6        0.0348
    104 HB2       -10.6498  -12.4544   -1.4344 H       6  ASP6        0.0348
    105 HD1       -13.4562   -6.5257    5.1907 H       5  TRP5        0.0810
    106 HB1       -18.1871   -7.2350   -2.2730 H       2  ASP2        0.0348
    107 HB2       -17.6351   -8.7995   -2.8476 H       2  ASP2        0.0348
    108 H         -14.6646   -7.9966  -11.4236 H       1  UNK1        0.0618
    109 H         -11.6598  -10.5062  -13.1854 H       1  UNK1        0.0618
    110 HE3        -9.4950   -9.8808    5.1183 H       5  TRP5        0.0624
    111 H         -13.0568   -8.4509  -13.2612 H       1  UNK1        0.0618
    112 HZ2       -10.9055   -7.6041    9.3373 H       5  TRP5        0.0638
    113 HZ3        -8.3055  -10.3277    7.2425 H       5  TRP5        0.0618
    114 H         -19.2551   -4.6599    1.0081 H       3  UNK3        0.0626
    115 HH2        -8.9971   -9.2052    9.3353 H       5  TRP5        0.0618
    116 H         -18.7908   -2.3130    2.1440 H       3  UNK3        0.0623
    117 H         -16.5142   -2.3435    3.4760 H       3  UNK3        0.0693
@<TRIPOS>BOND
     1     1    56   ar
     2     1    66   ar
     3     2    26    2
     4     3    35    2
     5     4    37    2
     6     5    39    2
     7     6    40    2
     8     7    48    2
     9     8    52    2
    10     9    60   ar
    11    10    60   ar
    12    11    64   ar
    13    12    64   ar
    14    13    22    1
    15    13    23    1
    16    14    24    1
    17    14    25    1
    18    14    32    1
    19    15    28    1
    20    15    40   am
    21    16    35   am
    22    16    31    1
    23    17    48   am
    24    17    29    1
    25    18    39   am
    26    18    36    1
    27    19    37   am
    28    19    41    1
    29    20    52   am
    30    20    44    1
    31    21    50   ar
    32    21    51   ar
    33    22    24    1
    34    23    25    1
    35    26    27    1
    36    26    13   am
    37    28    37    1
    38    28    27    1
    39    29    35    1
    40    29    30    1
    41    30    33    1
    42    31    39    1
    43    31    34    1
    44    32    45   ar
    45    32    46   ar
    46    33    43    1
    47    33    42    1
    48    34    38    1
    49    36    40    1
    50    36    49    1
    51    38    47   ar
    52    38    50   ar
    53    41    52    1
    54    41    53    1
    55    44    48    1
    56    44    56    1
    57    45    54   ar
    58    46    55   ar
    59    47    57   ar
    60    47    51   ar
    61    49    60    1
    62    51    59   ar
    63    53    64    1
    64    54    58   ar
    65    55    58   ar
    66    56    62   ar
    67    57    61   ar
    68    59    63   ar
    69    61    63   ar
    70    62    65   ar
    71    65    66   ar
    72    15    67    1
    73    16    68    1
    74    17    69    1
    75    18    70    1
    76    19    71    1
    77    20    72    1
    78    21    73    1
    79    22    74    1
    80    22    75    1
    81    23    76    1
    82    23    77    1
    83    24    78    1
    84    24    79    1
    85    25    80    1
    86    25    81    1
    87    27    82    1
    88    27    83    1
    89    28    84    1
    90    29    85    1
    91    30    86    1
    92    30    87    1
    93    31    88    1
    94    33    89    1
    95    34    90    1
    96    34    91    1
    97    36    92    1
    98    41    93    1
    99    42    94    1
   100    42    95    1
   101    42    96    1
   102    43    97    1
   103    43    98    1
   104    43    99    1
   105    44   100    1
   106    45   101    1
   107    46   102    1
   108    49   103    1
   109    49   104    1
   110    50   105    1
   111    53   106    1
   112    53   107    1
   113    54   108    1
   114    55   109    1
   115    57   110    1
   116    58   111    1
   117    59   112    1
   118    61   113    1
   119    62   114    1
   120    63   115    1
   121    65   116    1
   122    66   117    1
@<TRIPOS>MOLECULE
123882
 117 122 0 0 0
SMALL
GASTEIGER

@<TRIPOS>ATOM
      1 S         -19.0289   -4.8071    2.6017 S.2     3  UNK3       -0.0993
      2 O         -15.1488  -11.1073   -3.2945 O.2     1  UNK1       -0.2755
      3 O         -14.2485  -11.1532    4.4714 O.2     4  LEU4       -0.2738
      4 O         -13.6887   -6.8981   -3.0381 O.2     1  UNK1       -0.2737
      5 O         -13.4835   -9.2112    0.8762 O.2     5  TRP5       -0.2738
      6 O         -10.9821   -9.2627   -1.3635 O.2     6  ASP6       -0.2738
      7 O         -17.1685   -7.4910    3.9522 O.2     3  UNK3       -0.2734
      8 O         -17.0494   -8.9975   -0.1724 O.2     2  ASP2       -0.2737
      9 OD1       -11.0215  -13.1348    1.6093 O.co2   6  ASP6       -0.5497
     10 OD2       -10.5371  -14.5507   -0.1173 O.co2   6  ASP6       -0.5497
     11 OD1       -17.5084   -5.7869   -3.9760 O.co2   2  ASP2       -0.5497
     12 OD2       -17.3448   -7.6933   -5.2277 O.co2   2  ASP2       -0.5497
     13 N         -15.7486  -10.7471   -5.4686 N.am    1  UNK1       -0.2984
     14 N         -17.0979  -11.7831   -7.7798 N.pl3   1  UNK1       -0.3269
     15 N         -12.8276  -10.2551   -2.2917 N.am    1  UNK1       -0.3020
     16 N         -13.8739   -9.1352    3.4478 N.am    5  TRP5       -0.3022
     17 N         -16.3199   -8.9313    2.4191 N.am    4  LEU4       -0.3022
     18 N         -11.7037  -10.6381    1.0833 N.am    6  ASP6       -0.3021
     19 N         -15.1604   -8.4830   -2.2795 N.am    2  ASP2       -0.3021
     20 N         -16.6212   -6.8204    0.3349 N.am    3  UNK3       -0.2984
     21 NE1        -8.1176   -8.5348    2.3598 N.ar    5  TRP5       -0.3604
     22 C         -15.5690  -10.0782   -6.7626 C.3     1  UNK1        0.0304
     23 C         -17.0459  -11.3983   -5.2824 C.3     1  UNK1        0.0304
     24 C         -16.7091  -10.3550   -7.7606 C.3     1  UNK1        0.0280
     25 C         -17.3560  -12.3703   -6.4360 C.3     1  UNK1        0.0280
     26 C         -14.9071  -10.5838   -4.3883 C.2     1  UNK1        0.2179
     27 C         -13.6183   -9.7953   -4.6032 C.3     1  UNK1        0.0510
     28 C         -13.0406   -9.2226   -3.3001 C.3     1  UNK1        0.1076
     29 CA        -16.1446  -10.0740    3.3402 C.3     4  LEU4        0.0997
     30 CB        -16.6414  -11.3339    2.6026 C.3     4  LEU4       -0.0236
     31 CA        -12.4660   -9.3669    3.0717 C.3     5  TRP5        0.1034
     32 C         -16.5668  -12.6716   -8.7153 C.ar    1  UNK1        0.0298
     33 CG        -16.7363  -12.6474    3.4014 C.3     4  LEU4       -0.0446
     34 CB        -11.6675   -8.0691    3.2723 C.3     5  TRP5        0.0013
     35 C         -14.6689  -10.2088    3.8056 C.2     4  LEU4        0.2340
     36 CA        -11.9142  -11.2315   -0.2327 C.3     6  ASP6        0.1045
     37 C         -13.9579   -8.0769   -2.8097 C.2     1  UNK1        0.2344
     38 CG        -10.1707   -8.1627    3.1641 C.ar    5  TRP5       -0.0201
     39 C         -12.6040   -9.7274    1.5754 C.2     5  TRP5        0.2343
     40 C         -11.8517  -10.1332   -1.3230 C.2     6  ASP6        0.2343
     41 CA        -16.2654   -7.5761   -1.9934 C.3     2  ASP2        0.1045
     42 CD2       -17.5622  -12.5098    4.6785 C.3     4  LEU4       -0.0626
     43 CD1       -17.3419  -13.7403    2.5113 C.3     4  LEU4       -0.0626
     44 C         -17.3916   -6.8330    1.5789 C.3     3  UNK3        0.1311
     45 C         -15.4082  -12.4121   -9.4588 C.ar    1  UNK1       -0.0407
     46 C         -17.2070  -13.9026   -8.9474 C.ar    1  UNK1       -0.0407
     47 CD2        -9.1976   -7.6789    4.1082 C.ar    5  TRP5        0.0029
     48 C         -16.9021   -7.7346    2.7732 C.2     3  UNK3        0.2390
     49 CB        -10.8494  -12.2672   -0.5778 C.3     6  ASP6        0.0138
     50 CD1        -9.4512   -8.6259    2.0809 C.ar    5  TRP5        0.0060
     51 CE2        -7.9299   -7.9161    3.5711 C.ar    5  TRP5        0.0467
     52 C         -16.6915   -7.8781   -0.5452 C.2     2  ASP2        0.2345
     53 CB        -17.4690   -7.8634   -2.8841 C.3     2  ASP2        0.0138
     54 C         -14.8940  -13.3477  -10.3662 C.ar    1  UNK1       -0.0600
     55 C         -16.7067  -14.8382   -9.8586 C.ar    1  UNK1       -0.0600
     56 C         -17.5076   -5.4006    2.0616 C.ar    3  UNK3        0.0189
     57 CE3        -9.2737   -7.0324    5.3610 C.ar    5  TRP5       -0.0523
     58 C         -15.5427  -14.5619  -10.5652 C.ar    1  UNK1       -0.0616
     59 CZ2        -6.7434   -7.5463    4.2166 C.ar    5  TRP5       -0.0378
     60 CG        -10.8141  -13.4317    0.3973 C.2     6  ASP6        0.0440
     61 CZ3        -8.0969   -6.6438    6.0158 C.ar    5  TRP5       -0.0611
     62 C         -16.5343   -4.4187    2.1414 C.ar    3  UNK3       -0.0493
     63 CH2        -6.8507   -6.8980    5.4491 C.ar    5  TRP5       -0.0598
     64 CG        -17.4063   -7.0349   -4.1513 C.2     2  ASP2        0.0440
     65 C         -17.0424   -3.1849    2.6420 C.ar    3  UNK3       -0.0544
     66 C         -18.3818   -3.2645    2.9460 C.ar    3  UNK3       -0.0240
     67 H         -13.6180  -10.8667   -2.0983 H       1  UNK1        0.1495
     68 H         -14.3539   -8.5216    2.7917 H       5  TRP5        0.1495
     69 H         -16.2025   -9.1226    1.4208 H       4  LEU4        0.1495
     70 H         -11.3507  -11.3303    1.7571 H       6  ASP6        0.1495
     71 H         -15.3265   -9.4757   -2.1290 H       2  ASP2        0.1495
     72 H         -16.4863   -5.9185   -0.1084 H       3  UNK3        0.1498
     73 HE1        -7.3819   -8.8369    1.7375 H       5  TRP5        0.1653
     74 H         -14.6119  -10.4225   -7.1696 H       1  UNK1        0.0480
     75 H         -15.4884   -8.9991   -6.6005 H       1  UNK1        0.0480
     76 H         -17.8043  -10.6079   -5.2299 H       1  UNK1        0.0480
     77 H         -17.0864  -11.9401   -4.3318 H       1  UNK1        0.0480
     78 H         -17.5940   -9.7807   -7.4566 H       1  UNK1        0.0479
     79 H         -16.4547   -9.9814   -8.7591 H       1  UNK1        0.0479
     80 H         -16.7295  -13.2601   -6.2847 H       1  UNK1        0.0479
     81 H         -18.4036  -12.6862   -6.3742 H       1  UNK1        0.0479
     82 H         -13.7817   -8.9676   -5.2983 H       1  UNK1        0.0381
     83 H         -12.8954  -10.4842   -5.0564 H       1  UNK1        0.0381
     84 H         -12.0678   -8.7666   -3.5232 H       1  UNK1        0.0599
     85 HA        -16.7479   -9.8845    4.2333 H       4  LEU4        0.0594
     86 HB1       -15.9928  -11.5090    1.7321 H       4  LEU4        0.0290
     87 HB2       -17.6368  -11.1139    2.1895 H       4  LEU4        0.0290
     88 HA        -12.0567  -10.2089    3.6394 H       5  TRP5        0.0598
     89 HG        -15.7285  -12.9783    3.6745 H       4  LEU4        0.0296
     90 HB1       -11.9144   -7.6746    4.2671 H       5  TRP5        0.0337
     91 HB2       -12.0094   -7.3057    2.5602 H       5  TRP5        0.0337
     92 HA        -12.9100  -11.6920   -0.2222 H       6  ASP6        0.0598
     93 HA        -15.9219   -6.5399   -2.0748 H       2  ASP2        0.0598
     94 HD21      -18.5654  -12.1267    4.4639 H       4  LEU4        0.0232
     95 HD22      -17.0811  -11.8344    5.3919 H       4  LEU4        0.0232
     96 HD23      -17.6708  -13.4803    5.1752 H       4  LEU4        0.0232
     97 HD11      -18.3694  -13.4936    2.2212 H       4  LEU4        0.0232
     98 HD12      -17.3610  -14.7028    3.0334 H       4  LEU4        0.0232
     99 HD13      -16.7541  -13.8694    1.5961 H       4  LEU4        0.0232
    100 H         -18.3870   -7.2184    1.3175 H       3  UNK3        0.0651
    101 H         -14.8557  -11.4884   -9.3225 H       1  UNK1        0.0636
    102 H         -18.1273  -14.1348   -8.4170 H       1  UNK1        0.0636
    103 HB1        -9.8518  -11.8093   -0.5766 H       6  ASP6        0.0348
    104 HB2       -11.0229  -12.6495   -1.5918 H       6  ASP6        0.0348
    105 HD1        -9.7674   -9.0194    1.1232 H       5  TRP5        0.0810
    106 HB1       -18.4009   -7.5771   -2.3769 H       2  ASP2        0.0348
    107 HB2       -17.5568   -8.9310   -3.1177 H       2  ASP2        0.0348
    108 H         -13.9785  -13.1240  -10.9066 H       1  UNK1        0.0618
    109 H         -17.2294  -15.7781  -10.0079 H       1  UNK1        0.0618
    110 HE3       -10.2390   -6.8237    5.8115 H       5  TRP5        0.0624
    111 H         -15.1417  -15.2884  -11.2653 H       1  UNK1        0.0618
    112 HZ2        -5.7748   -7.7448    3.7708 H       5  TRP5        0.0638
    113 HZ3        -8.1616   -6.1360    6.9741 H       5  TRP5        0.0618
    114 H         -15.5026   -4.5772    1.8466 H       3  UNK3        0.0626
    115 HH2        -5.9480   -6.5878    5.9687 H       5  TRP5        0.0618
    116 H         -16.4518   -2.2876    2.7760 H       3  UNK3        0.0623
    117 H         -19.0177   -2.4896    3.3497 H       3  UNK3        0.0693
@<TRIPOS>BOND
     1     1    56   ar
     2     1    66   ar
     3     2    26    2
     4     3    35    2
     5     4    37    2
     6     5    39    2
     7     6    40    2
     8     7    48    2
     9     8    52    2
    10     9    60   ar
    11    10    60   ar
    12    11    64   ar
    13    12    64   ar
    14    13    22    1
    15    13    23    1
    16    14    24    1
    17    14    25    1
    18    14    32    1
    19    15    28    1
    20    15    40   am
    21    16    35   am
    22    16    31    1
    23    17    48   am
    24    17    29    1
    25    18    39   am
    26    18    36    1
    27    19    37   am
    28    19    41    1
    29    20    52   am
    30    20    44    1
    31    21    50   ar
    32    21    51   ar
    33    22    24    1
    34    23    25    1
    35    26    27    1
    36    26    13   am
    37    28    37    1
    38    28    27    1
    39    29    35    1
    40    29    30    1
    41    30    33    1
    42    31    39    1
    43    31    34    1
    44    32    45   ar
    45    32    46   ar
    46    33    43    1
    47    33    42    1
    48    34    38    1
    49    36    40    1
    50    36    49    1
    51    38    47   ar
    52    38    50   ar
    53    41    52    1
    54    41    53    1
    55    44    48    1
    56    44    56    1
    57    45    54   ar
    58    46    55   ar
    59    47    57   ar
    60    47    51   ar
    61    49    60    1
    62    51    59   ar
    63    53    64    1
    64    54    58   ar
    65    55    58   ar
    66    56    62   ar
    67    57    61   ar
    68    59    63   ar
    69    61    63   ar
    70    62    65   ar
    71    65    66   ar
    72    15    67    1
    73    16    68    1
    74    17    69    1
    75    18    70    1
    76    19    71    1
    77    20    72    1
    78    21    73    1
    79    22    74    1
    80    22    75    1
    81    23    76    1
    82    23    77    1
    83    24    78    1
    84    24    79    1
    85    25    80    1
    86    25    81    1
    87    27    82    1
    88    27    83    1
    89    28    84    1
    90    29    85    1
    91    30    86    1
    92    30    87    1
    93    31    88    1
    94    33    89    1
    95    34    90    1
    96    34    91    1
    97    36    92    1
    98    41    93    1
    99    42    94    1
   100    42    95    1
   101    42    96    1
   102    43    97    1
   103    43    98    1
   104    43    99    1
   105    44   100    1
   106    45   101    1
   107    46   102    1
   108    49   103    1
   109    49   104    1
   110    50   105    1
   111    53   106    1
   112    53   107    1
   113    54   108    1
   114    55   109    1
   115    57   110    1
   116    58   111    1
   117    59   112    1
   118    61   113    1
   119    62   114    1
   120    63   115    1
   121    65   116    1
   122    66   117    1
@<TRIPOS>MOLECULE
123882
 117 122 0 0 0
SMALL
GASTEIGER

@<TRIPOS>ATOM
      1 S         -18.7735   -5.0542    3.4238 S.2     3  UNK3       -0.0993
      2 O         -11.4081  -10.6479   -5.0537 O.2     1  UNK1       -0.2755
      3 O         -14.4162  -11.2243    4.5874 O.2     4  LEU4       -0.2738
      4 O         -13.7153   -6.8682   -3.1059 O.2     1  UNK1       -0.2737
      5 O         -13.6809   -9.4867    0.9291 O.2     5  TRP5       -0.2738
      6 O         -10.9733   -9.0654   -1.3672 O.2     6  ASP6       -0.2738
      7 O         -17.1011   -7.5570    4.1046 O.2     3  UNK3       -0.2734
      8 O         -17.4040   -8.9389   -0.2405 O.2     2  ASP2       -0.2737
      9 OD1       -10.4792  -12.7687    1.7051 O.co2   6  ASP6       -0.5497
     10 OD2       -10.6342  -14.3132    0.0244 O.co2   6  ASP6       -0.5497
     11 OD1       -19.0147   -8.5987   -3.5652 O.co2   2  ASP2       -0.5497
     12 OD2       -16.9747   -9.6341   -3.5134 O.co2   2  ASP2       -0.5497
     13 N         -13.1258  -11.4977   -6.2937 N.am    1  UNK1       -0.2984
     14 N         -13.3588  -11.8541   -9.1470 N.pl3   1  UNK1       -0.3269
     15 N         -12.8027  -10.1659   -2.2243 N.am    1  UNK1       -0.3020
     16 N         -14.0214   -9.2423    3.5216 N.am    5  TRP5       -0.3022
     17 N         -16.4897   -9.0444    2.5037 N.am    4  LEU4       -0.3022
     18 N         -11.6112  -10.4599    1.0953 N.am    6  ASP6       -0.3021
     19 N         -15.0446   -8.4491   -2.1084 N.am    2  ASP2       -0.3021
     20 N         -16.6491   -6.9477    0.5403 N.am    3  UNK3       -0.2984
     21 NE1       -12.2347   -5.2997    1.4705 N.ar    5  TRP5       -0.3604
     22 C         -14.4136  -11.2450   -6.9582 C.3     1  UNK1        0.0304
     23 C         -12.2368  -12.4424   -6.9712 C.3     1  UNK1        0.0304
     24 C         -14.5572  -12.0162   -8.2875 C.3     1  UNK1        0.0280
     25 C         -12.0569  -12.0639   -8.4490 C.3     1  UNK1        0.0280
     26 C         -12.6146  -10.6799   -5.2936 C.2     1  UNK1        0.2179
     27 C         -13.6256   -9.8389   -4.5314 C.3     1  UNK1        0.0510
     28 C         -13.0068   -9.1877   -3.2937 C.3     1  UNK1        0.1076
     29 CA        -16.2949  -10.1855    3.4140 C.3     4  LEU4        0.0997
     30 CB        -16.7391  -11.4564    2.6631 C.3     4  LEU4       -0.0236
     31 CA        -12.6409   -9.5180    3.1266 C.3     5  TRP5        0.1034
     32 C         -13.3288  -10.9444  -10.2083 C.ar    1  UNK1        0.0298
     33 CG        -16.8186  -12.7694    3.4649 C.3     4  LEU4       -0.0446
     34 CB        -11.6862   -8.3637    3.4459 C.3     5  TRP5        0.0013
     35 C         -14.8289  -10.2945    3.8981 C.2     4  LEU4        0.2340
     36 CA        -11.7339  -11.0893   -0.2170 C.3     6  ASP6        0.1045
     37 C         -13.9181   -8.0448   -2.7986 C.2     1  UNK1        0.2344
     38 CG        -12.0787   -7.0350    2.8624 C.ar    5  TRP5       -0.0201
     39 C         -12.7070   -9.8125    1.6149 C.2     5  TRP5        0.2343
     40 C         -11.7815   -9.9924   -1.3048 C.2     6  ASP6        0.2343
     41 CA        -16.1036   -7.5133   -1.7798 C.3     2  ASP2        0.1045
     42 CD2       -17.6645  -12.6428    4.7301 C.3     4  LEU4       -0.0626
     43 CD1       -17.3870  -13.8770    2.5698 C.3     4  LEU4       -0.0626
     44 C         -17.4920   -6.9222    1.7347 C.3     3  UNK3        0.1311
     45 C         -12.2402  -10.9302  -11.1029 C.ar    1  UNK1       -0.0407
     46 C         -14.3525  -10.0213  -10.4649 C.ar    1  UNK1       -0.0407
     47 CD2       -12.9676   -6.0651    3.4300 C.ar    5  TRP5        0.0029
     48 C         -16.9601   -7.8092    2.9086 C.2     3  UNK3        0.2390
     49 CB        -10.5669  -12.0206   -0.5233 C.3     6  ASP6        0.0138
     50 CD1       -11.6508   -6.5223    1.6541 C.ar    5  TRP5        0.0060
     51 CE2       -13.0357   -4.9881    2.5447 C.ar    5  TRP5        0.0467
     52 C         -16.7954   -7.8946   -0.4531 C.2     2  ASP2        0.2345
     53 CB        -17.1312   -7.3567   -2.8952 C.3     2  ASP2        0.0138
     54 C         -12.1596  -10.0285  -12.1706 C.ar    1  UNK1       -0.0600
     55 C         -14.2835   -9.1173  -11.5348 C.ar    1  UNK1       -0.0600
     56 C         -17.7258   -5.4645    2.1166 C.ar    3  UNK3        0.0189
     57 CE3       -13.7363   -6.0125    4.6109 C.ar    5  TRP5       -0.0523
     58 C         -13.1843   -9.1172  -12.3853 C.ar    1  UNK1       -0.0616
     59 CZ2       -13.8178   -3.8533    2.7929 C.ar    5  TRP5       -0.0378
     60 CG        -10.5651  -13.1469    0.4969 C.2     6  ASP6        0.0440
     61 CZ3       -14.5362   -4.8940    4.8665 C.ar    5  TRP5       -0.0611
     62 C         -17.3069   -4.3101    1.4668 C.ar    3  UNK3       -0.0493
     63 CH2       -14.5678   -3.8273    3.9730 C.ar    5  TRP5       -0.0598
     64 CG        -17.7749   -8.6657   -3.3402 C.2     2  ASP2        0.0440
     65 C         -17.7795   -3.1144    2.0806 C.ar    3  UNK3       -0.0544
     66 C         -18.5624   -3.3793    3.1779 C.ar    3  UNK3       -0.0240
     67 H         -13.6178  -10.6654   -1.8877 H       1  UNK1        0.1495
     68 H         -14.4868   -8.6028    2.8830 H       5  TRP5        0.1495
     69 H         -16.4548   -9.2383    1.5008 H       4  LEU4        0.1495
     70 H         -11.0981  -11.0626    1.7516 H       6  ASP6        0.1495
     71 H         -15.4173   -9.3723   -2.3464 H       2  ASP2        0.1495
     72 H         -15.7722   -6.4411    0.5643 H       3  UNK3        0.1498
     73 HE1       -12.1076   -4.7208    0.6525 H       5  TRP5        0.1653
     74 H         -14.4887  -10.1694   -7.1516 H       1  UNK1        0.0480
     75 H         -15.2166  -11.5254   -6.2688 H       1  UNK1        0.0480
     76 H         -12.6938  -13.4356   -6.8835 H       1  UNK1        0.0480
     77 H         -11.2610  -12.5014   -6.4787 H       1  UNK1        0.0480
     78 H         -14.6545  -13.0874   -8.0658 H       1  UNK1        0.0479
     79 H         -15.4904  -11.7550   -8.7959 H       1  UNK1        0.0479
     80 H         -11.4577  -11.1439   -8.4808 H       1  UNK1        0.0479
     81 H         -11.4965  -12.8574   -8.9567 H       1  UNK1        0.0479
     82 H         -14.4676  -10.4786   -4.2455 H       1  UNK1        0.0381
     83 H         -13.9949   -9.0611   -5.2096 H       1  UNK1        0.0381
     84 H         -12.0402   -8.7310   -3.5391 H       1  UNK1        0.0599
     85 HA        -16.9157  -10.0163    4.2992 H       4  LEU4        0.0594
     86 HB1       -16.0636  -11.6154    1.8100 H       4  LEU4        0.0290
     87 HB2       -17.7289  -11.2628    2.2249 H       4  LEU4        0.0290
     88 HA        -12.2937  -10.4265    3.6329 H       5  TRP5        0.0598
     89 HG        -15.8086  -13.0798    3.7538 H       4  LEU4        0.0296
     90 HB1       -10.6748   -8.6151    3.1008 H       5  TRP5        0.0337
     91 HB2       -11.6162   -8.2532    4.5362 H       5  TRP5        0.0337
     92 HA        -12.6744  -11.6557   -0.2205 H       6  ASP6        0.0598
     93 HA        -15.6384   -6.5295   -1.6351 H       2  ASP2        0.0598
     94 HD21      -18.6655  -12.2620    4.5023 H       4  LEU4        0.0232
     95 HD22      -17.1969  -11.9687    5.4540 H       4  LEU4        0.0232
     96 HD23      -17.7762  -13.6156    5.2213 H       4  LEU4        0.0232
     97 HD11      -18.4128  -13.6504    2.2590 H       4  LEU4        0.0232
     98 HD12      -17.3979  -14.8369    3.0969 H       4  LEU4        0.0232
     99 HD13      -16.7787  -13.9994    1.6672 H       4  LEU4        0.0232
    100 H         -18.4651   -7.3515    1.4576 H       3  UNK3        0.0651
    101 H         -11.4273  -11.6412  -10.9810 H       1  UNK1        0.0636
    102 H         -15.2226   -9.9519   -9.8201 H       1  UNK1        0.0636
    103 HB1        -9.6072  -11.4930   -0.4664 H       6  ASP6        0.0348
    104 HB2       -10.6576  -12.4256   -1.5387 H       6  ASP6        0.0348
    105 HD1       -10.9986   -6.9421    0.8961 H       5  TRP5        0.0810
    106 HB1       -16.6560   -6.9219   -3.7832 H       2  ASP2        0.0348
    107 HB2       -17.9158   -6.6593   -2.5753 H       2  ASP2        0.0348
    108 H         -11.2939  -10.0449  -12.8263 H       1  UNK1        0.0618
    109 H         -15.0914   -8.4071  -11.6881 H       1  UNK1        0.0618
    110 HE3       -13.7328   -6.8474    5.3065 H       5  TRP5        0.0624
    111 H         -13.1271   -8.4102  -13.2071 H       1  UNK1        0.0618
    112 HZ2       -13.8581   -3.0282    2.0908 H       5  TRP5        0.0638
    113 HZ3       -15.1514   -4.8730    5.7623 H       5  TRP5        0.0618
    114 H         -16.6926   -4.3155    0.5743 H       3  UNK3        0.0626
    115 HH2       -15.2041   -2.9724    4.1859 H       5  TRP5        0.0618
    116 H         -17.5573   -2.1154    1.7281 H       3  UNK3        0.0623
    117 H         -19.0456   -2.6705    3.8347 H       3  UNK3        0.0693
@<TRIPOS>BOND
     1     1    56   ar
     2     1    66   ar
     3     2    26    2
     4     3    35    2
     5     4    37    2
     6     5    39    2
     7     6    40    2
     8     7    48    2
     9     8    52    2
    10     9    60   ar
    11    10    60   ar
    12    11    64   ar
    13    12    64   ar
    14    13    22    1
    15    13    23    1
    16    14    24    1
    17    14    25    1
    18    14    32    1
    19    15    28    1
    20    15    40   am
    21    16    35   am
    22    16    31    1
    23    17    48   am
    24    17    29    1
    25    18    39   am
    26    18    36    1
    27    19    37   am
    28    19    41    1
    29    20    52   am
    30    20    44    1
    31    21    50   ar
    32    21    51   ar
    33    22    24    1
    34    23    25    1
    35    26    27    1
    36    26    13   am
    37    28    37    1
    38    28    27    1
    39    29    35    1
    40    29    30    1
    41    30    33    1
    42    31    39    1
    43    31    34    1
    44    32    45   ar
    45    32    46   ar
    46    33    43    1
    47    33    42    1
    48    34    38    1
    49    36    40    1
    50    36    49    1
    51    38    47   ar
    52    38    50   ar
    53    41    52    1
    54    41    53    1
    55    44    48    1
    56    44    56    1
    57    45    54   ar
    58    46    55   ar
    59    47    57   ar
    60    47    51   ar
    61    49    60    1
    62    51    59   ar
    63    53    64    1
    64    54    58   ar
    65    55    58   ar
    66    56    62   ar
    67    57    61   ar
    68    59    63   ar
    69    61    63   ar
    70    62    65   ar
    71    65    66   ar
    72    15    67    1
    73    16    68    1
    74    17    69    1
    75    18    70    1
    76    19    71    1
    77    20    72    1
    78    21    73    1
    79    22    74    1
    80    22    75    1
    81    23    76    1
    82    23    77    1
    83    24    78    1
    84    24    79    1
    85    25    80    1
    86    25    81    1
    87    27    82    1
    88    27    83    1
    89    28    84    1
    90    29    85    1
    91    30    86    1
    92    30    87    1
    93    31    88    1
    94    33    89    1
    95    34    90    1
    96    34    91    1
    97    36    92    1
    98    41    93    1
    99    42    94    1
   100    42    95    1
   101    42    96    1
   102    43    97    1
   103    43    98    1
   104    43    99    1
   105    44   100    1
   106    45   101    1
   107    46   102    1
   108    49   103    1
   109    49   104    1
   110    50   105    1
   111    53   106    1
   112    53   107    1
   113    54   108    1
   114    55   109    1
   115    57   110    1
   116    58   111    1
   117    59   112    1
   118    61   113    1
   119    62   114    1
   120    63   115    1
   121    65   116    1
   122    66   117    1
@<TRIPOS>MOLECULE
123882
 117 122 0 0 0
SMALL
GASTEIGER

@<TRIPOS>ATOM
      1 S         -15.9676   -4.4405    1.9742 S.2     3  UNK3       -0.0993
      2 O         -12.8451   -7.7323   -5.7290 O.2     1  UNK1       -0.2755
      3 O         -14.3878  -11.2805    4.3244 O.2     4  LEU4       -0.2738
      4 O         -13.6116   -6.8627   -2.1800 O.2     1  UNK1       -0.2737
      5 O         -13.4283   -9.2783    0.8249 O.2     5  TRP5       -0.2738
      6 O         -10.5662   -9.2805   -1.6270 O.2     6  ASP6       -0.2738
      7 O         -17.3896   -7.6070    3.7407 O.2     3  UNK3       -0.2734
      8 O         -17.1432   -8.9943   -0.4450 O.2     2  ASP2       -0.2737
      9 OD1       -11.0770  -14.2737   -0.0799 O.co2   6  ASP6       -0.5497
     10 OD2       -10.5793  -12.8981    1.6835 O.co2   6  ASP6       -0.5497
     11 OD1       -16.6495   -7.0514   -5.0638 O.co2   2  ASP2       -0.5497
     12 OD2       -18.6141   -6.1089   -4.3912 O.co2   2  ASP2       -0.5497
     13 N         -14.3076   -9.2048   -6.7022 N.am    1  UNK1       -0.2984
     14 N         -16.5596   -9.8219   -8.5229 N.pl3   1  UNK1       -0.3269
     15 N         -12.7107   -9.9583   -2.1274 N.am    1  UNK1       -0.3020
     16 N         -13.9604   -9.2304    3.3786 N.am    5  TRP5       -0.3022
     17 N         -16.4193   -9.0404    2.2670 N.am    4  LEU4       -0.3022
     18 N         -11.4428  -10.3932    1.0670 N.am    6  ASP6       -0.3021
     19 N         -15.2605   -8.3763   -2.6277 N.am    2  ASP2       -0.3021
     20 N         -16.4889   -6.9143    0.1967 N.am    3  UNK3       -0.2984
     21 NE1       -11.4846   -8.2249    7.1589 N.ar    5  TRP5       -0.3604
     22 C         -14.9056  -10.5399   -6.8135 C.3     1  UNK1        0.0304
     23 C         -14.7457   -8.2272   -7.7049 C.3     1  UNK1        0.0304
     24 C         -15.4869  -10.7907   -8.2172 C.3     1  UNK1        0.0280
     25 C         -16.2260   -8.4144   -8.1039 C.3     1  UNK1        0.0280
     26 C         -13.4981   -8.7733   -5.6610 C.2     1  UNK1        0.2179
     27 C         -13.3777   -9.7049   -4.4699 C.3     1  UNK1        0.0510
     28 C         -12.9268   -8.9761   -3.1994 C.3     1  UNK1        0.1076
     29 CA        -16.2369  -10.1241    3.2403 C.3     4  LEU4        0.0997
     30 CB        -16.8907  -11.4395    2.7708 C.3     4  LEU4       -0.0236
     31 CA        -12.5470   -9.4734    3.0831 C.3     5  TRP5        0.1034
     32 C         -17.9131  -10.1667   -8.3385 C.ar    1  UNK1        0.0298
     33 CG        -16.4309  -12.0274    1.4155 C.3     4  LEU4       -0.0446
     34 CB        -11.6568   -8.2890    3.4735 C.3     5  TRP5        0.0013
     35 C         -14.7731  -10.3030    3.6874 C.2     4  LEU4        0.2340
     36 CA        -11.5724  -11.0340   -0.2450 C.3     6  ASP6        0.1045
     37 C         -13.9507   -7.9425   -2.6648 C.2     1  UNK1        0.2344
     38 CG        -11.6883   -7.9919    4.9501 C.ar    5  TRP5       -0.0201
     39 C         -12.5214   -9.6924    1.5545 C.2     5  TRP5        0.2343
     40 C         -11.5405   -9.9897   -1.3864 C.2     6  ASP6        0.2343
     41 CA        -16.3526   -7.5063   -2.2062 C.3     2  ASP2        0.1045
     42 CD2       -15.0155  -12.6020    1.4451 C.3     4  LEU4       -0.0626
     43 CD1       -17.4000  -13.1347    0.9830 C.3     4  LEU4       -0.0626
     44 C         -17.3095   -6.8691    1.4007 C.3     3  UNK3        0.1311
     45 C         -18.9318   -9.2175   -8.5589 C.ar    1  UNK1       -0.0407
     46 C         -18.3467  -11.4466   -7.9550 C.ar    1  UNK1       -0.0407
     47 CD2       -12.2241   -6.8257    5.5920 C.ar    5  TRP5        0.0029
     48 C         -16.9962   -7.8323    2.5928 C.2     3  UNK3        0.2390
     49 CB        -10.4573  -12.0421   -0.4955 C.3     6  ASP6        0.0138
     50 CD1       -11.2262   -8.8199    5.9558 C.ar    5  TRP5        0.0060
     51 CE2       -12.0804   -7.0005    6.9700 C.ar    5  TRP5        0.0467
     52 C         -16.6990   -7.8878   -0.7524 C.2     2  ASP2        0.2345
     53 CB        -17.6177   -7.7374   -3.0277 C.3     2  ASP2        0.0138
     54 C         -20.2873   -9.5052   -8.3547 C.ar    1  UNK1       -0.0600
     55 C         -19.7033  -11.7474   -7.7561 C.ar    1  UNK1       -0.0600
     56 C         -17.3604   -5.4453    1.9256 C.ar    3  UNK3        0.0189
     57 CE3       -12.8350   -5.6410    5.1307 C.ar    5  TRP5       -0.0523
     58 C         -20.6740  -10.7733   -7.9475 C.ar    1  UNK1       -0.0616
     59 CZ2       -12.5138   -6.0526    7.9066 C.ar    5  TRP5       -0.0378
     60 CG        -10.7268  -13.1896    0.4588 C.2     6  ASP6        0.0440
     61 CZ3       -13.2713   -4.6814    6.0526 C.ar    5  TRP5       -0.0611
     62 C         -18.4625   -4.7894    2.4485 C.ar    3  UNK3       -0.0493
     63 CH2       -13.1118   -4.8863    7.4206 C.ar    5  TRP5       -0.0598
     64 CG        -17.6157   -6.8746   -4.2748 C.2     2  ASP2        0.0440
     65 C         -18.1667   -3.4614    2.8658 C.ar    3  UNK3       -0.0544
     66 C         -16.8482   -3.1370    2.6446 C.ar    3  UNK3       -0.0240
     67 H         -13.5363  -10.2571   -1.6193 H       1  UNK1        0.1495
     68 H         -14.3995   -8.5629    2.7518 H       5  TRP5        0.1495
     69 H         -16.1673   -9.2033    1.2911 H       4  LEU4        0.1495
     70 H         -11.0028  -11.0294    1.7430 H       6  ASP6        0.1495
     71 H         -15.5086   -9.3175   -2.8868 H       2  ASP2        0.1495
     72 H         -16.0750   -6.0444   -0.1221 H       3  UNK3        0.1498
     73 HE1       -11.2850   -8.6328    8.0601 H       5  TRP5        0.1653
     74 H         -15.6957  -10.6171   -6.0580 H       1  UNK1        0.0480
     75 H         -14.1365  -11.2851   -6.5852 H       1  UNK1        0.0480
     76 H         -14.1028   -8.3662   -8.5828 H       1  UNK1        0.0480
     77 H         -14.5874   -7.2053   -7.3443 H       1  UNK1        0.0480
     78 H         -14.6936  -10.6508   -8.9640 H       1  UNK1        0.0479
     79 H         -15.7886  -11.8338   -8.3368 H       1  UNK1        0.0479
     80 H         -16.8424   -8.1347   -7.2450 H       1  UNK1        0.0479
     81 H         -16.4522   -7.7323   -8.9316 H       1  UNK1        0.0479
     82 H         -12.6370  -10.4704   -4.7347 H       1  UNK1        0.0381
     83 H         -14.3224  -10.2271   -4.2971 H       1  UNK1        0.0381
     84 H         -11.9940   -8.4356   -3.3986 H       1  UNK1        0.0599
     85 HA        -16.7566   -9.8343    4.1630 H       4  LEU4        0.0594
     86 HB1       -17.9709  -11.2504    2.7049 H       4  LEU4        0.0290
     87 HB2       -16.7641  -12.2041    3.5484 H       4  LEU4        0.0290
     88 HA        -12.2195  -10.3950    3.5783 H       5  TRP5        0.0598
     89 HG        -16.4663  -11.2511    0.6458 H       4  LEU4        0.0296
     90 HB1       -11.9561   -7.3959    2.9105 H       5  TRP5        0.0337
     91 HB2       -10.6186   -8.4944    3.1823 H       5  TRP5        0.0337
     92 HA        -12.5427  -11.5483   -0.2582 H       6  ASP6        0.0598
     93 HA        -16.0354   -6.4577   -2.2527 H       2  ASP2        0.0598
     94 HD21      -14.9031  -13.3518    2.2350 H       4  LEU4        0.0232
     95 HD22      -14.2719  -11.8224    1.6046 H       4  LEU4        0.0232
     96 HD23      -14.7694  -13.0804    0.4903 H       4  LEU4        0.0232
     97 HD11      -17.4035  -13.9620    1.7010 H       4  LEU4        0.0232
     98 HD12      -17.1188  -13.5374    0.0037 H       4  LEU4        0.0232
     99 HD13      -18.4216  -12.7496    0.9005 H       4  LEU4        0.0232
    100 H         -18.3264   -7.1449    1.0845 H       3  UNK3        0.0651
    101 H         -18.6831   -8.2074   -8.8745 H       1  UNK1        0.0636
    102 H         -17.6476  -12.2503   -7.7609 H       1  UNK1        0.0636
    103 HB1        -9.4665  -11.6173   -0.2983 H       6  ASP6        0.0348
    104 HB2       -10.4711  -12.3953   -1.5333 H       6  ASP6        0.0348
    105 HD1       -10.7713   -9.8010    5.9115 H       5  TRP5        0.0810
    106 HB1       -18.5064   -7.4773   -2.4363 H       2  ASP2        0.0348
    107 HB2       -17.7292   -8.7879   -3.3203 H       2  ASP2        0.0348
    108 H         -21.0273   -8.7225   -8.4955 H       1  UNK1        0.0618
    109 H         -19.9902  -12.7428   -7.4297 H       1  UNK1        0.0618
    110 HE3       -12.9773   -5.4750    4.0668 H       5  TRP5        0.0624
    111 H         -21.7209  -10.9951   -7.7674 H       1  UNK1        0.0618
    112 HZ2       -12.4012   -6.2182    8.9724 H       5  TRP5        0.0638
    113 HZ3       -13.7489   -3.7751    5.6904 H       5  TRP5        0.0618
    114 H         -19.4359   -5.2566    2.5421 H       3  UNK3        0.0626
    115 HH2       -13.4659   -4.1342    8.1206 H       5  TRP5        0.0618
    116 H         -18.8851   -2.7821    3.3064 H       3  UNK3        0.0623
    117 H         -16.3520   -2.2004    2.8554 H       3  UNK3        0.0693
@<TRIPOS>BOND
     1     1    56   ar
     2     1    66   ar
     3     2    26    2
     4     3    35    2
     5     4    37    2
     6     5    39    2
     7     6    40    2
     8     7    48    2
     9     8    52    2
    10     9    60   ar
    11    10    60   ar
    12    11    64   ar
    13    12    64   ar
    14    13    22    1
    15    13    23    1
    16    14    24    1
    17    14    25    1
    18    14    32    1
    19    15    28    1
    20    15    40   am
    21    16    35   am
    22    16    31    1
    23    17    48   am
    24    17    29    1
    25    18    39   am
    26    18    36    1
    27    19    37   am
    28    19    41    1
    29    20    52   am
    30    20    44    1
    31    21    50   ar
    32    21    51   ar
    33    22    24    1
    34    23    25    1
    35    26    27    1
    36    26    13   am
    37    28    37    1
    38    28    27    1
    39    29    35    1
    40    29    30    1
    41    30    33    1
    42    31    39    1
    43    31    34    1
    44    32    45   ar
    45    32    46   ar
    46    33    43    1
    47    33    42    1
    48    34    38    1
    49    36    40    1
    50    36    49    1
    51    38    47   ar
    52    38    50   ar
    53    41    52    1
    54    41    53    1
    55    44    48    1
    56    44    56    1
    57    45    54   ar
    58    46    55   ar
    59    47    57   ar
    60    47    51   ar
    61    49    60    1
    62    51    59   ar
    63    53    64    1
    64    54    58   ar
    65    55    58   ar
    66    56    62   ar
    67    57    61   ar
    68    59    63   ar
    69    61    63   ar
    70    62    65   ar
    71    65    66   ar
    72    15    67    1
    73    16    68    1
    74    17    69    1
    75    18    70    1
    76    19    71    1
    77    20    72    1
    78    21    73    1
    79    22    74    1
    80    22    75    1
    81    23    76    1
    82    23    77    1
    83    24    78    1
    84    24    79    1
    85    25    80    1
    86    25    81    1
    87    27    82    1
    88    27    83    1
    89    28    84    1
    90    29    85    1
    91    30    86    1
    92    30    87    1
    93    31    88    1
    94    33    89    1
    95    34    90    1
    96    34    91    1
    97    36    92    1
    98    41    93    1
    99    42    94    1
   100    42    95    1
   101    42    96    1
   102    43    97    1
   103    43    98    1
   104    43    99    1
   105    44   100    1
   106    45   101    1
   107    46   102    1
   108    49   103    1
   109    49   104    1
   110    50   105    1
   111    53   106    1
   112    53   107    1
   113    54   108    1
   114    55   109    1
   115    57   110    1
   116    58   111    1
   117    59   112    1
   118    61   113    1
   119    62   114    1
   120    63   115    1
   121    65   116    1
   122    66   117    1
@<TRIPOS>MOLECULE
123882
 117 122 0 0 0
SMALL
GASTEIGER

@<TRIPOS>ATOM
      1 S         -19.0067   -4.8090    2.3397 S.2     3  UNK3       -0.0993
      2 O         -11.4402  -10.7539   -5.1581 O.2     1  UNK1       -0.2755
      3 O         -14.2523  -11.1781    4.3913 O.2     4  LEU4       -0.2738
      4 O         -13.5525   -6.8088   -2.8510 O.2     1  UNK1       -0.2737
      5 O         -13.4277   -9.1956    0.8390 O.2     5  TRP5       -0.2738
      6 O         -10.8179   -9.1054   -1.4328 O.2     6  ASP6       -0.2738
      7 O         -17.0861   -7.4666    3.8325 O.2     3  UNK3       -0.2734
      8 O         -16.9613   -9.0172   -0.2948 O.2     2  ASP2       -0.2737
      9 OD1       -10.6636  -12.9874    1.5958 O.co2   6  ASP6       -0.5497
     10 OD2       -11.1685  -14.3435   -0.1765 O.co2   6  ASP6       -0.5497
     11 OD1       -16.5200   -8.1571   -5.1052 O.co2   2  ASP2       -0.5497
     12 OD2       -18.0932   -6.5414   -4.7433 O.co2   2  ASP2       -0.5497
     13 N         -13.2580  -11.3980   -6.3808 N.am    1  UNK1       -0.2984
     14 N         -14.5942  -13.6093   -7.7252 N.pl3   1  UNK1       -0.3269
     15 N         -12.6943  -10.1177   -2.3031 N.am    1  UNK1       -0.3020
     16 N         -13.8825   -9.1450    3.3924 N.am    5  TRP5       -0.3022
     17 N         -16.3803   -9.0130    2.3286 N.am    4  LEU4       -0.3022
     18 N         -11.5309  -10.4618    1.0443 N.am    6  ASP6       -0.3021
     19 N         -15.0812   -8.4634   -2.4090 N.am    2  ASP2       -0.3021
     20 N         -16.5224   -6.8498    0.2322 N.am    3  UNK3       -0.2984
     21 NE1        -8.1840   -8.2837    2.2259 N.ar    5  TRP5       -0.3604
     22 C         -12.4901  -12.4779   -7.0072 C.3     1  UNK1        0.0304
     23 C         -14.6411  -11.2325   -6.8593 C.3     1  UNK1        0.0304
     24 C         -13.2473  -13.1742   -8.1499 C.3     1  UNK1        0.0280
     25 C         -15.3696  -12.5871   -6.9636 C.3     1  UNK1        0.0280
     26 C         -12.6455  -10.6487   -5.3826 C.2     1  UNK1        0.2179
     27 C         -13.5458   -9.7182   -4.5971 C.3     1  UNK1        0.0510
     28 C         -12.8968   -9.1113   -3.3498 C.3     1  UNK1        0.1076
     29 CA        -16.1480  -10.0794    3.3123 C.3     4  LEU4        0.0997
     30 CB        -16.7967  -11.4109    2.8746 C.3     4  LEU4       -0.0236
     31 CA        -12.4617   -9.3498    3.0585 C.3     5  TRP5        0.1034
     32 C         -14.8818  -14.9439   -7.4249 C.ar    1  UNK1        0.0298
     33 CG        -16.3530  -12.0187    1.5214 C.3     4  LEU4       -0.0446
     34 CB        -11.6793   -8.0633    3.3459 C.3     5  TRP5        0.0013
     35 C         -14.6679  -10.2284    3.7337 C.2     4  LEU4        0.2340
     36 CA        -11.7013  -11.0748   -0.2718 C.3     6  ASP6        0.1045
     37 C         -13.8419   -8.0038   -2.8179 C.2     1  UNK1        0.2344
     38 CG        -10.1956   -8.1611    3.1822 C.ar    5  TRP5       -0.0201
     39 C         -12.5221   -9.6552    1.5444 C.2     5  TRP5        0.2343
     40 C         -11.6739   -9.9871   -1.3741 C.2     6  ASP6        0.2343
     41 CA        -16.2011   -7.5848   -2.1139 C.3     2  ASP2        0.1045
     42 CD2       -14.9555  -12.6352    1.5612 C.3     4  LEU4       -0.0626
     43 CD1       -17.3549  -13.0964    1.0869 C.3     4  LEU4       -0.0626
     44 C         -17.3273   -6.8640    1.4530 C.3     3  UNK3        0.1311
     45 C         -16.2084  -15.3512   -7.1835 C.ar    1  UNK1       -0.0407
     46 C         -13.9076  -15.9520   -7.3640 C.ar    1  UNK1       -0.0407
     47 CD2        -9.1968   -8.2347    4.2099 C.ar    5  TRP5        0.0029
     48 C         -16.8687   -7.7657    2.6563 C.2     3  UNK3        0.2390
     49 CB        -10.6083  -12.0914   -0.5732 C.3     6  ASP6        0.0138
     50 CD1        -9.5188   -8.1502    1.9786 C.ar    5  TRP5        0.0060
     51 CE2        -7.9515   -8.2957    3.5813 C.ar    5  TRP5        0.0467
     52 C         -16.5950   -7.8923   -0.6591 C.2     2  ASP2        0.2345
     53 CB        -17.4355   -7.9006   -2.9524 C.3     2  ASP2        0.0138
     54 C         -16.5419  -16.6766   -6.8758 C.ar    1  UNK1       -0.0600
     55 C         -14.2322  -17.2833   -7.0620 C.ar    1  UNK1       -0.0600
     56 C         -17.4566   -5.4329    1.9349 C.ar    3  UNK3        0.0189
     57 CE3        -9.2321   -8.2506    5.6206 C.ar    5  TRP5       -0.0523
     58 C         -15.5500  -17.6452   -6.8145 C.ar    1  UNK1       -0.0616
     59 CZ2        -6.7435   -8.3680    4.2874 C.ar    5  TRP5       -0.0378
     60 CG        -10.8343  -13.2582    0.3701 C.2     6  ASP6        0.0440
     61 CZ3        -8.0341   -8.3163    6.3424 C.ar    5  TRP5       -0.0611
     62 C         -16.4707   -4.4789    2.1239 C.ar    3  UNK3       -0.0493
     63 CH2        -6.8080   -8.3725    5.6829 C.ar    5  TRP5       -0.0598
     64 CG        -17.3167   -7.4732   -4.4003 C.2     2  ASP2        0.0440
     65 C         -16.9928   -3.2434    2.6061 C.ar    3  UNK3       -0.0544
     66 C         -18.3564   -3.2927    2.7801 C.ar    3  UNK3       -0.0240
     67 H         -13.4727  -10.7049   -2.0383 H       1  UNK1        0.1495
     68 H         -14.3514   -8.5340    2.7284 H       5  TRP5        0.1495
     69 H         -16.2385   -9.2235    1.3381 H       4  LEU4        0.1495
     70 H         -11.0825  -11.0968    1.7153 H       6  ASP6        0.1495
     71 H         -15.2677   -9.4552   -2.3881 H       2  ASP2        0.1495
     72 H         -16.3154   -5.9453   -0.1752 H       3  UNK3        0.1498
     73 HE1        -7.4730   -8.3577    1.5124 H       5  TRP5        0.1653
     74 H         -12.2489  -13.2019   -6.2196 H       1  UNK1        0.0480
     75 H         -11.5447  -12.0660   -7.3790 H       1  UNK1        0.0480
     76 H         -14.5743  -10.7652   -7.8487 H       1  UNK1        0.0480
     77 H         -15.2197  -10.5530   -6.2318 H       1  UNK1        0.0480
     78 H         -13.3802  -12.4587   -8.9727 H       1  UNK1        0.0479
     79 H         -12.6457  -13.9792   -8.5822 H       1  UNK1        0.0479
     80 H         -15.5480  -12.9434   -5.9400 H       1  UNK1        0.0479
     81 H         -16.3395  -12.4291   -7.4494 H       1  UNK1        0.0479
     82 H         -14.4340  -10.2860   -4.2958 H       1  UNK1        0.0381
     83 H         -13.8528   -8.9143   -5.2770 H       1  UNK1        0.0381
     84 H         -11.9351   -8.6465   -3.5953 H       1  UNK1        0.0599
     85 HA        -16.6553   -9.7809    4.2397 H       4  LEU4        0.0594
     86 HB1       -17.8792  -11.2308    2.8218 H       4  LEU4        0.0290
     87 HB2       -16.6525  -12.1612    3.6636 H       4  LEU4        0.0290
     88 HA        -12.0652  -10.2129    3.6045 H       5  TRP5        0.0598
     89 HG        -16.3608  -11.2488    0.7467 H       4  LEU4        0.0296
     90 HB1       -11.9008   -7.7393    4.3721 H       5  TRP5        0.0337
     91 HB2       -12.0461   -7.2526    2.7005 H       5  TRP5        0.0337
     92 HA        -12.6845  -11.5622   -0.2714 H       6  ASP6        0.0598
     93 HA        -15.9068   -6.5377   -2.2250 H       2  ASP2        0.0598
     94 HD21      -14.8737  -13.3916    2.3476 H       4  LEU4        0.0232
     95 HD22      -14.1915  -11.8779    1.7329 H       4  LEU4        0.0232
     96 HD23      -14.7169  -13.1151    0.6058 H       4  LEU4        0.0232
     97 HD11      -17.3901  -13.9208    1.8088 H       4  LEU4        0.0232
     98 HD12      -17.0794  -13.5129    0.1118 H       4  LEU4        0.0232
     99 HD13      -18.3624  -12.6797    0.9946 H       4  LEU4        0.0232
    100 H         -18.3154   -7.2492    1.1664 H       3  UNK3        0.0651
    101 H         -17.0189  -14.6300   -7.2386 H       1  UNK1        0.0636
    102 H         -12.8560  -15.7297   -7.5120 H       1  UNK1        0.0636
    103 HB1        -9.6078  -11.6739   -0.4080 H       6  ASP6        0.0348
    104 HB2       -10.6594  -12.4275   -1.6157 H       6  ASP6        0.0348
    105 HD1        -9.8824   -8.1010    0.9575 H       5  TRP5        0.0810
    106 HB1       -18.3111   -7.3987   -2.5125 H       2  ASP2        0.0348
    107 HB2       -17.6612   -8.9749   -2.9353 H       2  ASP2        0.0348
    108 H         -17.5780  -16.9399   -6.6813 H       1  UNK1        0.0618
    109 H         -13.4436  -18.0284   -7.0054 H       1  UNK1        0.0618
    110 HE3       -10.1816   -8.2159    6.1447 H       5  TRP5        0.0624
    111 H         -15.7998  -18.6721   -6.5660 H       1  UNK1        0.0618
    112 HZ2        -5.7923   -8.4240    3.7708 H       5  TRP5        0.0638
    113 HZ3        -8.0648   -8.3303    7.4289 H       5  TRP5        0.0618
    114 H         -15.4199   -4.6629    1.9306 H       3  UNK3        0.0626
    115 HH2        -5.8885   -8.4304    6.2588 H       5  TRP5        0.0618
    116 H         -16.3941   -2.3680    2.8224 H       3  UNK3        0.0623
    117 H         -19.0072   -2.5099    3.1437 H       3  UNK3        0.0693
@<TRIPOS>BOND
     1     1    56   ar
     2     1    66   ar
     3     2    26    2
     4     3    35    2
     5     4    37    2
     6     5    39    2
     7     6    40    2
     8     7    48    2
     9     8    52    2
    10     9    60   ar
    11    10    60   ar
    12    11    64   ar
    13    12    64   ar
    14    13    22    1
    15    13    23    1
    16    14    24    1
    17    14    25    1
    18    14    32    1
    19    15    28    1
    20    15    40   am
    21    16    35   am
    22    16    31    1
    23    17    48   am
    24    17    29    1
    25    18    39   am
    26    18    36    1
    27    19    37   am
    28    19    41    1
    29    20    52   am
    30    20    44    1
    31    21    50   ar
    32    21    51   ar
    33    22    24    1
    34    23    25    1
    35    26    27    1
    36    26    13   am
    37    28    37    1
    38    28    27    1
    39    29    35    1
    40    29    30    1
    41    30    33    1
    42    31    39    1
    43    31    34    1
    44    32    45   ar
    45    32    46   ar
    46    33    43    1
    47    33    42    1
    48    34    38    1
    49    36    40    1
    50    36    49    1
    51    38    47   ar
    52    38    50   ar
    53    41    52    1
    54    41    53    1
    55    44    48    1
    56    44    56    1
    57    45    54   ar
    58    46    55   ar
    59    47    57   ar
    60    47    51   ar
    61    49    60    1
    62    51    59   ar
    63    53    64    1
    64    54    58   ar
    65    55    58   ar
    66    56    62   ar
    67    57    61   ar
    68    59    63   ar
    69    61    63   ar
    70    62    65   ar
    71    65    66   ar
    72    15    67    1
    73    16    68    1
    74    17    69    1
    75    18    70    1
    76    19    71    1
    77    20    72    1
    78    21    73    1
    79    22    74    1
    80    22    75    1
    81    23    76    1
    82    23    77    1
    83    24    78    1
    84    24    79    1
    85    25    80    1
    86    25    81    1
    87    27    82    1
    88    27    83    1
    89    28    84    1
    90    29    85    1
    91    30    86    1
    92    30    87    1
    93    31    88    1
    94    33    89    1
    95    34    90    1
    96    34    91    1
    97    36    92    1
    98    41    93    1
    99    42    94    1
   100    42    95    1
   101    42    96    1
   102    43    97    1
   103    43    98    1
   104    43    99    1
   105    44   100    1
   106    45   101    1
   107    46   102    1
   108    49   103    1
   109    49   104    1
   110    50   105    1
   111    53   106    1
   112    53   107    1
   113    54   108    1
   114    55   109    1
   115    57   110    1
   116    58   111    1
   117    59   112    1
   118    61   113    1
   119    62   114    1
   120    63   115    1
   121    65   116    1
   122    66   117    1
@<TRIPOS>MOLECULE
123882
 117 122 0 0 0
SMALL
GASTEIGER

@<TRIPOS>ATOM
      1 S         -16.8837   -5.0222    3.4901 S.2     3  UNK3       -0.0993
      2 O         -11.3996  -10.8238   -5.0720 O.2     1  UNK1       -0.2755
      3 O         -14.3142  -11.3279    4.4501 O.2     4  LEU4       -0.2738
      4 O         -13.6765   -6.9305   -3.2429 O.2     1  UNK1       -0.2737
      5 O         -13.7050   -9.3871    0.9355 O.2     5  TRP5       -0.2738
      6 O         -10.9528   -9.0840   -1.4202 O.2     6  ASP6       -0.2738
      7 O         -18.0648   -8.0425    3.7954 O.2     3  UNK3       -0.2734
      8 O         -17.0153   -9.1447   -0.1982 O.2     2  ASP2       -0.2737
      9 OD1       -10.5115  -12.6732    1.7860 O.co2   6  ASP6       -0.5497
     10 OD2       -10.6887  -14.2777    0.1626 O.co2   6  ASP6       -0.5497
     11 OD1       -19.1288   -8.4980   -3.0284 O.co2   2  ASP2       -0.5497
     12 OD2       -17.1711   -9.5680   -3.5531 O.co2   2  ASP2       -0.5497
     13 N         -13.1328  -11.5507   -6.3707 N.am    1  UNK1       -0.2984
     14 N         -13.4337  -11.9284   -9.2255 N.pl3   1  UNK1       -0.3269
     15 N         -12.7770  -10.2004   -2.2644 N.am    1  UNK1       -0.3020
     16 N         -14.0259   -9.2261    3.5804 N.am    5  TRP5       -0.3022
     17 N         -16.4250   -9.0459    2.5642 N.am    4  LEU4       -0.3022
     18 N         -11.6317  -10.3659    1.0992 N.am    6  ASP6       -0.3021
     19 N         -14.9980   -8.5021   -2.2265 N.am    2  ASP2       -0.3021
     20 N         -16.5837   -7.0381    0.5289 N.am    3  UNK3       -0.2984
     21 NE1       -13.1497   -5.0393    1.9847 N.ar    5  TRP5       -0.3604
     22 C         -14.4149  -11.2403   -7.0178 C.3     1  UNK1        0.0304
     23 C         -12.2826  -12.5165   -7.0664 C.3     1  UNK1        0.0304
     24 C         -14.6216  -12.0013   -8.3415 C.3     1  UNK1        0.0280
     25 C         -12.1224  -12.1428   -8.5470 C.3     1  UNK1        0.0280
     26 C         -12.5990  -10.7860   -5.3407 C.2     1  UNK1        0.2179
     27 C         -13.5851   -9.9134   -4.5859 C.3     1  UNK1        0.0510
     28 C         -12.9548   -9.2501   -3.3648 C.3     1  UNK1        0.1076
     29 CA        -16.2630  -10.2240    3.4413 C.3     4  LEU4        0.0997
     30 CB        -16.7688  -11.4602    2.6743 C.3     4  LEU4       -0.0236
     31 CA        -12.6446   -9.3851    3.1214 C.3     5  TRP5        0.1034
     32 C         -13.3721  -10.9906  -10.2633 C.ar    1  UNK1        0.0298
     33 CG        -16.8470  -12.7921    3.4451 C.3     4  LEU4       -0.0446
     34 CB        -11.7481   -8.1753    3.4229 C.3     5  TRP5        0.0013
     35 C         -14.7755  -10.3559    3.8611 C.2     4  LEU4        0.2340
     36 CA        -11.7616  -11.0405   -0.1920 C.3     6  ASP6        0.1045
     37 C         -13.8688   -8.0985   -2.9091 C.2     1  UNK1        0.2344
     38 CG        -12.0947   -6.8173    2.8500 C.ar    5  TRP5       -0.0201
     39 C         -12.7210   -9.6983    1.6126 C.2     5  TRP5        0.2343
     40 C         -11.7772   -9.9931   -1.3274 C.2     6  ASP6        0.2343
     41 CA        -16.0061   -7.5630   -1.7932 C.3     2  ASP2        0.1045
     42 CD2       -17.6739  -12.6874    4.7248 C.3     4  LEU4       -0.0626
     43 CD1       -17.4371  -13.8746    2.5337 C.3     4  LEU4       -0.0626
     44 C         -17.5715   -7.0496    1.6034 C.3     3  UNK3        0.1311
     45 C         -12.4364  -11.1656  -11.2997 C.ar    1  UNK1       -0.0407
     46 C         -14.1924   -9.8573  -10.3346 C.ar    1  UNK1       -0.0407
     47 CD2       -11.1635   -5.7245    2.7047 C.ar    5  TRP5        0.0029
     48 C         -17.3734   -8.0670    2.7746 C.2     3  UNK3        0.2390
     49 CB        -10.6112  -12.0052   -0.4648 C.3     6  ASP6        0.0138
     50 CD1       -13.3069   -6.3350    2.3963 C.ar    5  TRP5        0.0060
     51 CE2       -11.8525   -4.6363    2.1695 C.ar    5  TRP5        0.0467
     52 C         -16.5914   -8.0201   -0.4424 C.2     2  ASP2        0.2345
     53 CB        -17.1062   -7.3261   -2.8161 C.3     2  ASP2        0.0138
     54 C         -12.3105  -10.2466  -12.3461 C.ar    1  UNK1       -0.0600
     55 C         -14.0681   -8.9286  -11.3759 C.ar    1  UNK1       -0.0600
     56 C         -17.6552   -5.6026    2.0713 C.ar    3  UNK3        0.0189
     57 CE3        -9.7885   -5.5658    2.9789 C.ar    5  TRP5       -0.0523
     58 C         -13.1259   -9.1222  -12.3811 C.ar    1  UNK1       -0.0616
     59 CZ2       -11.2457   -3.4051    1.8915 C.ar    5  TRP5       -0.0378
     60 CG        -10.6108  -13.0947    0.5932 C.2     6  ASP6        0.0440
     61 CZ3        -9.1624   -4.3431    2.7046 C.ar    5  TRP5       -0.0611
     62 C         -18.2516   -4.5586    1.3782 C.ar    3  UNK3       -0.0493
     63 CH2        -9.8839   -3.2792    2.1685 C.ar    5  TRP5       -0.0598
     64 CG        -17.8759   -8.5994   -3.1440 C.2     2  ASP2        0.0440
     65 C         -18.0954   -3.3004    2.0254 C.ar    3  UNK3       -0.0544
     66 C         -17.3934   -3.4169    3.2023 C.ar    3  UNK3       -0.0240
     67 H         -13.6017  -10.6778   -1.9204 H       1  UNK1        0.1495
     68 H         -14.5594   -8.5913    3.0006 H       5  TRP5        0.1495
     69 H         -16.0913   -9.1606    1.6027 H       4  LEU4        0.1495
     70 H         -11.1143  -10.9496    1.7690 H       6  ASP6        0.1495
     71 H         -15.3755   -9.4309   -2.4169 H       2  ASP2        0.1495
     72 H         -16.2170   -6.1390    0.2511 H       3  UNK3        0.1498
     73 HE1       -13.8829   -4.4636    1.5969 H       5  TRP5        0.1653
     74 H         -14.4396  -10.1623   -7.2088 H       1  UNK1        0.0480
     75 H         -15.2217  -11.4775   -6.3165 H       1  UNK1        0.0480
     76 H         -12.7646  -13.4968   -6.9701 H       1  UNK1        0.0480
     77 H         -11.2986  -12.5995   -6.5941 H       1  UNK1        0.0480
     78 H         -14.7888  -13.0621   -8.1132 H       1  UNK1        0.0479
     79 H         -15.5373  -11.6714   -8.8452 H       1  UNK1        0.0479
     80 H         -11.5151  -11.2284   -8.5950 H       1  UNK1        0.0479
     81 H         -11.5754  -12.9410   -9.0616 H       1  UNK1        0.0479
     82 H         -14.4418  -10.5288   -4.2878 H       1  UNK1        0.0381
     83 H         -13.9408   -9.1375   -5.2741 H       1  UNK1        0.0381
     84 H         -11.9827   -8.8079   -3.6136 H       1  UNK1        0.0599
     85 HA        -16.8431  -10.0608    4.3542 H       4  LEU4        0.0594
     86 HB1       -16.1272  -11.6120    1.7942 H       4  LEU4        0.0290
     87 HB2       -17.7676  -11.2318    2.2771 H       4  LEU4        0.0290
     88 HA        -12.2220  -10.2649    3.6224 H       5  TRP5        0.0598
     89 HG        -15.8361  -13.1177    3.7134 H       4  LEU4        0.0296
     90 HB1       -10.7295   -8.4233    3.0960 H       5  TRP5        0.0337
     91 HB2       -11.7012   -8.0521    4.5140 H       5  TRP5        0.0337
     92 HA        -12.7126  -11.5889   -0.1792 H       6  ASP6        0.0598
     93 HA        -15.5014   -6.6015   -1.6348 H       2  ASP2        0.0598
     94 HD21      -18.6749  -12.2945    4.5198 H       4  LEU4        0.0232
     95 HD22      -17.1903  -12.0328    5.4561 H       4  LEU4        0.0232
     96 HD23      -17.7859  -13.6700    5.1958 H       4  LEU4        0.0232
     97 HD11      -18.4634  -13.6312    2.2381 H       4  LEU4        0.0232
     98 HD12      -17.4532  -14.8456    3.0411 H       4  LEU4        0.0232
     99 HD13      -16.8391  -13.9862    1.6227 H       4  LEU4        0.0232
    100 H         -18.5338   -7.3229    1.1494 H       3  UNK3        0.0651
    101 H         -11.7961  -12.0442  -11.3019 H       1  UNK1        0.0636
    102 H         -14.9237   -9.6455   -9.5609 H       1  UNK1        0.0636
    103 HB1        -9.6436  -11.4898   -0.4347 H       6  ASP6        0.0348
    104 HB2       -10.7126  -12.4464   -1.4638 H       6  ASP6        0.0348
    105 HD1       -14.2796   -6.7869    2.3040 H       5  TRP5        0.0810
    106 HB1       -16.6853   -6.9441   -3.7537 H       2  ASP2        0.0348
    107 HB2       -17.8033   -6.5670   -2.4391 H       2  ASP2        0.0348
    108 H         -11.5733  -10.4140  -13.1257 H       1  UNK1        0.0618
    109 H         -14.7045   -8.0481  -11.3872 H       1  UNK1        0.0618
    110 HE3        -9.2135   -6.3930    3.3827 H       5  TRP5        0.0624
    111 H         -13.0270   -8.3981  -13.1839 H       1  UNK1        0.0618
    112 HZ2       -11.8086   -2.5835    1.4618 H       5  TRP5        0.0638
    113 HZ3        -8.0996   -4.2323    2.9010 H       5  TRP5        0.0618
    114 H         -18.7599   -4.6983    0.4292 H       3  UNK3        0.0626
    115 HH2        -9.3792   -2.3422    1.9497 H       5  TRP5        0.0618
    116 H         -18.4802   -2.3621    1.6466 H       3  UNK3        0.0623
    117 H         -17.1404   -2.6340    3.9040 H       3  UNK3        0.0693
@<TRIPOS>BOND
     1     1    56   ar
     2     1    66   ar
     3     2    26    2
     4     3    35    2
     5     4    37    2
     6     5    39    2
     7     6    40    2
     8     7    48    2
     9     8    52    2
    10     9    60   ar
    11    10    60   ar
    12    11    64   ar
    13    12    64   ar
    14    13    22    1
    15    13    23    1
    16    14    24    1
    17    14    25    1
    18    14    32    1
    19    15    28    1
    20    15    40   am
    21    16    35   am
    22    16    31    1
    23    17    48   am
    24    17    29    1
    25    18    39   am
    26    18    36    1
    27    19    37   am
    28    19    41    1
    29    20    52   am
    30    20    44    1
    31    21    50   ar
    32    21    51   ar
    33    22    24    1
    34    23    25    1
    35    26    27    1
    36    26    13   am
    37    28    37    1
    38    28    27    1
    39    29    35    1
    40    29    30    1
    41    30    33    1
    42    31    39    1
    43    31    34    1
    44    32    45   ar
    45    32    46   ar
    46    33    43    1
    47    33    42    1
    48    34    38    1
    49    36    40    1
    50    36    49    1
    51    38    47   ar
    52    38    50   ar
    53    41    52    1
    54    41    53    1
    55    44    48    1
    56    44    56    1
    57    45    54   ar
    58    46    55   ar
    59    47    57   ar
    60    47    51   ar
    61    49    60    1
    62    51    59   ar
    63    53    64    1
    64    54    58   ar
    65    55    58   ar
    66    56    62   ar
    67    57    61   ar
    68    59    63   ar
    69    61    63   ar
    70    62    65   ar
    71    65    66   ar
    72    15    67    1
    73    16    68    1
    74    17    69    1
    75    18    70    1
    76    19    71    1
    77    20    72    1
    78    21    73    1
    79    22    74    1
    80    22    75    1
    81    23    76    1
    82    23    77    1
    83    24    78    1
    84    24    79    1
    85    25    80    1
    86    25    81    1
    87    27    82    1
    88    27    83    1
    89    28    84    1
    90    29    85    1
    91    30    86    1
    92    30    87    1
    93    31    88    1
    94    33    89    1
    95    34    90    1
    96    34    91    1
    97    36    92    1
    98    41    93    1
    99    42    94    1
   100    42    95    1
   101    42    96    1
   102    43    97    1
   103    43    98    1
   104    43    99    1
   105    44   100    1
   106    45   101    1
   107    46   102    1
   108    49   103    1
   109    49   104    1
   110    50   105    1
   111    53   106    1
   112    53   107    1
   113    54   108    1
   114    55   109    1
   115    57   110    1
   116    58   111    1
   117    59   112    1
   118    61   113    1
   119    62   114    1
   120    63   115    1
   121    65   116    1
   122    66   117    1
@<TRIPOS>MOLECULE
123882
 117 122 0 0 0
SMALL
GASTEIGER

@<TRIPOS>ATOM
      1 S         -17.6011   -4.7966    3.5540 S.2     3  UNK3       -0.0993
      2 O         -13.1074   -7.5772   -5.5646 O.2     1  UNK1       -0.2755
      3 O         -14.3351  -11.3854    4.2773 O.2     4  LEU4       -0.2738
      4 O         -13.7533   -7.1049   -1.6678 O.2     1  UNK1       -0.2737
      5 O         -13.4006   -9.2811    0.8651 O.2     5  TRP5       -0.2738
      6 O         -10.6439   -9.1981   -1.6024 O.2     6  ASP6       -0.2738
      7 O         -17.0067   -7.6254    3.9362 O.2     3  UNK3       -0.2734
      8 O         -17.4893   -8.8790   -0.3487 O.2     2  ASP2       -0.2737
      9 OD1       -10.4901  -12.8641    1.6463 O.co2   6  ASP6       -0.5497
     10 OD2       -10.8708  -14.2814   -0.1118 O.co2   6  ASP6       -0.5497
     11 OD1       -16.6509   -8.1538   -4.8722 O.co2   2  ASP2       -0.5497
     12 OD2       -17.9616   -6.2761   -4.8648 O.co2   2  ASP2       -0.5497
     13 N         -14.2951   -9.1733   -6.7141 N.am    1  UNK1       -0.2984
     14 N         -16.5208   -9.8212   -8.5725 N.pl3   1  UNK1       -0.3269
     15 N         -12.7473   -9.9841   -2.1175 N.am    1  UNK1       -0.3020
     16 N         -13.9241   -9.3003    3.4063 N.am    5  TRP5       -0.3022
     17 N         -16.4035   -9.0812    2.3166 N.am    4  LEU4       -0.3022
     18 N         -11.4102  -10.3976    1.0697 N.am    6  ASP6       -0.3021
     19 N         -15.4187   -8.3701   -2.5685 N.am    2  ASP2       -0.3021
     20 N         -16.4952   -6.9703    0.3475 N.am    3  UNK3       -0.2984
     21 NE1       -11.5083   -8.2532    7.1946 N.ar    5  TRP5       -0.3604
     22 C         -14.9002  -10.5081   -6.8109 C.3     1  UNK1        0.0304
     23 C         -14.7110   -8.2226   -7.7515 C.3     1  UNK1        0.0304
     24 C         -15.4598  -10.7885   -8.2179 C.3     1  UNK1        0.0280
     25 C         -16.1860   -8.4081   -8.1773 C.3     1  UNK1        0.0280
     26 C         -13.6369   -8.6893   -5.5871 C.2     1  UNK1        0.2179
     27 C         -13.5084   -9.6450   -4.4122 C.3     1  UNK1        0.0510
     28 C         -13.0554   -8.9540   -3.1210 C.3     1  UNK1        0.1076
     29 CA        -16.1972  -10.2024    3.2426 C.3     4  LEU4        0.0997
     30 CB        -16.8435  -11.5048    2.7261 C.3     4  LEU4       -0.0236
     31 CA        -12.5063   -9.5158    3.1089 C.3     5  TRP5        0.1034
     32 C         -17.8782  -10.1537   -8.3795 C.ar    1  UNK1        0.0298
     33 CG        -16.3873  -12.0409    1.3484 C.3     4  LEU4       -0.0446
     34 CB        -11.6399   -8.3165    3.5073 C.3     5  TRP5        0.0013
     35 C         -14.7291  -10.3880    3.6783 C.2     4  LEU4        0.2340
     36 CA        -11.5566  -11.0248   -0.2474 C.3     6  ASP6        0.1045
     37 C         -14.0891   -8.0097   -2.4371 C.2     1  UNK1        0.2344
     38 CG        -11.6862   -8.0188    4.9832 C.ar    5  TRP5       -0.0201
     39 C         -12.4870   -9.7091    1.5780 C.2     5  TRP5        0.2343
     40 C         -11.5792   -9.9626   -1.3736 C.2     6  ASP6        0.2343
     41 CA        -16.4617   -7.4734   -2.0753 C.3     2  ASP2        0.1045
     42 CD2       -14.9691  -12.6079    1.3544 C.3     4  LEU4       -0.0626
     43 CD1       -17.3504  -13.1412    0.8849 C.3     4  LEU4       -0.0626
     44 C         -17.2630   -6.8593    1.5905 C.3     3  UNK3        0.1311
     45 C         -18.8922   -9.2162   -8.6630 C.ar    1  UNK1       -0.0407
     46 C         -18.3185  -11.4089   -7.9276 C.ar    1  UNK1       -0.0407
     47 CD2       -12.2207   -6.8487    5.6200 C.ar    5  TRP5        0.0029
     48 C         -16.8242   -7.8313    2.7366 C.2     3  UNK3        0.2390
     49 CB        -10.4297  -12.0081   -0.5386 C.3     6  ASP6        0.0138
     50 CD1       -11.2407   -8.8497    5.9941 C.ar    5  TRP5        0.0060
     51 CE2       -12.0917   -7.0238    6.9993 C.ar    5  TRP5        0.0467
     52 C         -16.8592   -7.8592   -0.6348 C.2     2  ASP2        0.2345
     53 CB        -17.7472   -7.5567   -2.9015 C.3     2  ASP2        0.0138
     54 C         -20.2507   -9.4903   -8.4572 C.ar    1  UNK1       -0.0600
     55 C         -19.6778  -11.6964   -7.7275 C.ar    1  UNK1       -0.0600
     56 C         -17.3563   -5.3730    1.9509 C.ar    3  UNK3        0.0189
     57 CE3       -12.8195   -5.6596    5.1534 C.ar    5  TRP5       -0.0523
     58 C         -20.6446  -10.7335   -7.9842 C.ar    1  UNK1       -0.0616
     59 CZ2       -12.5266   -6.0726    7.9318 C.ar    5  TRP5       -0.0378
     60 CG        -10.6143  -13.1689    0.4220 C.2     6  ASP6        0.0440
     61 CZ3       -13.2582   -4.6967    6.0711 C.ar    5  TRP5       -0.0611
     62 C         -17.3963   -4.3015    1.0633 C.ar    3  UNK3       -0.0493
     63 CH2       -13.1120   -4.9024    7.4404 C.ar    5  TRP5       -0.0598
     64 CG        -17.4253   -7.2929   -4.3551 C.2     2  ASP2        0.0440
     65 C         -17.5855   -3.0406    1.6994 C.ar    3  UNK3       -0.0544
     66 C         -17.7052   -3.1705    3.0608 C.ar    3  UNK3       -0.0240
     67 H         -13.5531  -10.3761   -1.6414 H       1  UNK1        0.1495
     68 H         -14.3670   -8.6257    2.7909 H       5  TRP5        0.1495
     69 H         -16.2922   -9.2383    1.3156 H       4  LEU4        0.1495
     70 H         -10.9597  -11.0423    1.7312 H       6  ASP6        0.1495
     71 H         -15.6652   -8.7341   -3.4948 H       2  ASP2        0.1495
     72 H         -15.6890   -6.3747    0.1798 H       3  UNK3        0.1498
     73 HE1       -11.3227   -8.6631    8.0979 H       5  TRP5        0.1653
     74 H         -15.7028  -10.5734   -6.0684 H       1  UNK1        0.0480
     75 H         -14.1364  -11.2501   -6.5559 H       1  UNK1        0.0480
     76 H         -14.0546   -8.3935   -8.6137 H       1  UNK1        0.0480
     77 H         -14.5535   -7.1896   -7.4249 H       1  UNK1        0.0480
     78 H         -14.6520  -10.6732   -8.9533 H       1  UNK1        0.0479
     79 H         -15.7676  -11.8322   -8.3196 H       1  UNK1        0.0479
     80 H         -16.8204   -8.0847   -7.3464 H       1  UNK1        0.0479
     81 H         -16.3836   -7.7488   -9.0309 H       1  UNK1        0.0479
     82 H         -12.7561  -10.3919   -4.6998 H       1  UNK1        0.0381
     83 H         -14.4432  -10.1884   -4.2493 H       1  UNK1        0.0381
     84 H         -12.1587   -8.3554   -3.3202 H       1  UNK1        0.0599
     85 HA        -16.7175   -9.9542    4.1773 H       4  LEU4        0.0594
     86 HB1       -17.9256  -11.3212    2.6718 H       4  LEU4        0.0290
     87 HB2       -16.7084  -12.2961    3.4753 H       4  LEU4        0.0290
     88 HA        -12.1621  -10.4372    3.5919 H       5  TRP5        0.0598
     89 HG        -16.4325  -11.2384    0.6052 H       4  LEU4        0.0296
     90 HB1       -11.9514   -7.4284    2.9429 H       5  TRP5        0.0337
     91 HB2       -10.5965   -8.5031    3.2223 H       5  TRP5        0.0337
     92 HA        -12.5149  -11.5606   -0.2416 H       6  ASP6        0.0598
     93 HA        -16.0881   -6.4419   -2.0949 H       2  ASP2        0.0598
     94 HD21      -14.8505  -13.3848    2.1167 H       4  LEU4        0.0232
     95 HD22      -14.2307  -11.8302    1.5417 H       4  LEU4        0.0232
     96 HD23      -14.7224  -13.0503    0.3827 H       4  LEU4        0.0232
     97 HD11      -17.3442  -13.9911    1.5762 H       4  LEU4        0.0232
     98 HD12      -17.0707  -13.5107   -0.1078 H       4  LEU4        0.0232
     99 HD13      -18.3755  -12.7620    0.8195 H       4  LEU4        0.0232
    100 H         -18.2919   -7.1724    1.3569 H       3  UNK3        0.0651
    101 H         -18.6347   -8.2265   -9.0304 H       1  UNK1        0.0636
    102 H         -17.6221  -12.1980   -7.6730 H       1  UNK1        0.0636
    103 HB1        -9.4432  -11.5569   -0.3841 H       6  ASP6        0.0348
    104 HB2       -10.4780  -12.3603   -1.5759 H       6  ASP6        0.0348
    105 HD1       -10.7930   -9.8345    5.9543 H       5  TRP5        0.0810
    106 HB1       -18.4841   -6.8345   -2.5295 H       2  ASP2        0.0348
    107 HB2       -18.2075   -8.5504   -2.8335 H       2  ASP2        0.0348
    108 H         -20.9880   -8.7161   -8.6475 H       1  UNK1        0.0618
    109 H         -19.9690  -12.6704   -7.3449 H       1  UNK1        0.0618
    110 HE3       -12.9522   -5.4929    4.0886 H       5  TRP5        0.0624
    111 H         -21.6933  -10.9438   -7.8011 H       1  UNK1        0.0618
    112 HZ2       -12.4265   -6.2392    8.9986 H       5  TRP5        0.0638
    113 HZ3       -13.7277   -3.7877    5.7050 H       5  TRP5        0.0618
    114 H         -17.3106   -4.4195   -0.0117 H       3  UNK3        0.0626
    115 HH2       -13.4688   -4.1483    8.1369 H       5  TRP5        0.0618
    116 H         -17.6444   -2.0929    1.1795 H       3  UNK3        0.0623
    117 H         -17.8644   -2.3911    3.7923 H       3  UNK3        0.0693
@<TRIPOS>BOND
     1     1    56   ar
     2     1    66   ar
     3     2    26    2
     4     3    35    2
     5     4    37    2
     6     5    39    2
     7     6    40    2
     8     7    48    2
     9     8    52    2
    10     9    60   ar
    11    10    60   ar
    12    11    64   ar
    13    12    64   ar
    14    13    22    1
    15    13    23    1
    16    14    24    1
    17    14    25    1
    18    14    32    1
    19    15    28    1
    20    15    40   am
    21    16    35   am
    22    16    31    1
    23    17    48   am
    24    17    29    1
    25    18    39   am
    26    18    36    1
    27    19    37   am
    28    19    41    1
    29    20    52   am
    30    20    44    1
    31    21    50   ar
    32    21    51   ar
    33    22    24    1
    34    23    25    1
    35    26    27    1
    36    26    13   am
    37    28    37    1
    38    28    27    1
    39    29    35    1
    40    29    30    1
    41    30    33    1
    42    31    39    1
    43    31    34    1
    44    32    45   ar
    45    32    46   ar
    46    33    43    1
    47    33    42    1
    48    34    38    1
    49    36    40    1
    50    36    49    1
    51    38    47   ar
    52    38    50   ar
    53    41    52    1
    54    41    53    1
    55    44    48    1
    56    44    56    1
    57    45    54   ar
    58    46    55   ar
    59    47    57   ar
    60    47    51   ar
    61    49    60    1
    62    51    59   ar
    63    53    64    1
    64    54    58   ar
    65    55    58   ar
    66    56    62   ar
    67    57    61   ar
    68    59    63   ar
    69    61    63   ar
    70    62    65   ar
    71    65    66   ar
    72    15    67    1
    73    16    68    1
    74    17    69    1
    75    18    70    1
    76    19    71    1
    77    20    72    1
    78    21    73    1
    79    22    74    1
    80    22    75    1
    81    23    76    1
    82    23    77    1
    83    24    78    1
    84    24    79    1
    85    25    80    1
    86    25    81    1
    87    27    82    1
    88    27    83    1
    89    28    84    1
    90    29    85    1
    91    30    86    1
    92    30    87    1
    93    31    88    1
    94    33    89    1
    95    34    90    1
    96    34    91    1
    97    36    92    1
    98    41    93    1
    99    42    94    1
   100    42    95    1
   101    42    96    1
   102    43    97    1
   103    43    98    1
   104    43    99    1
   105    44   100    1
   106    45   101    1
   107    46   102    1
   108    49   103    1
   109    49   104    1
   110    50   105    1
   111    53   106    1
   112    53   107    1
   113    54   108    1
   114    55   109    1
   115    57   110    1
   116    58   111    1
   117    59   112    1
   118    61   113    1
   119    62   114    1
   120    63   115    1
   121    65   116    1
   122    66   117    1
@<TRIPOS>MOLECULE
123882
 117 122 0 0 0
SMALL
GASTEIGER

@<TRIPOS>ATOM
      1 S         -18.0858   -5.0751    3.6520 S.2     3  UNK3       -0.0993
      2 O         -13.3556   -7.6940   -5.7369 O.2     1  UNK1       -0.2755
      3 O         -14.2269  -11.4938    3.9322 O.2     4  LEU4       -0.2738
      4 O         -13.4472   -6.9094   -2.4904 O.2     1  UNK1       -0.2737
      5 O         -13.3804   -8.9820    0.9505 O.2     5  TRP5       -0.2738
      6 O         -11.0022   -9.0527   -1.3623 O.2     6  ASP6       -0.2738
      7 O         -16.5932   -7.5101    3.9191 O.2     3  UNK3       -0.2734
      8 O         -16.1973   -9.0009   -0.1450 O.2     2  ASP2       -0.2737
      9 OD1       -10.6891  -12.9059    1.6407 O.co2   6  ASP6       -0.5497
     10 OD2       -11.0654  -14.3825   -0.0670 O.co2   6  ASP6       -0.5497
     11 OD1       -19.0029   -9.2234   -1.6328 O.co2   2  ASP2       -0.5497
     12 OD2       -17.4038   -9.9528   -3.1102 O.co2   2  ASP2       -0.5497
     13 N         -14.2988   -9.3937   -6.9289 N.am    1  UNK1       -0.2984
     14 N         -14.2888  -10.4211   -9.6361 N.pl3   1  UNK1       -0.3269
     15 N         -12.7878  -10.1488   -2.3025 N.am    1  UNK1       -0.3020
     16 N         -13.9489   -9.2687    3.5683 N.am    5  TRP5       -0.3022
     17 N         -16.4271   -9.0883    2.3442 N.am    4  LEU4       -0.3022
     18 N         -11.6005  -10.4104    1.1340 N.am    6  ASP6       -0.3021
     19 N         -15.2083   -8.3379   -2.7088 N.am    2  ASP2       -0.3021
     20 N         -16.4081   -6.7693    0.3347 N.am    3  UNK3       -0.2984
     21 NE1       -12.2103   -5.0996    1.7185 N.ar    5  TRP5       -0.3604
     22 C         -14.5223   -8.4916   -8.0607 C.3     1  UNK1        0.0304
     23 C         -14.6331  -10.8052   -7.1637 C.3     1  UNK1        0.0304
     24 C         -15.0612   -9.2040   -9.3130 C.3     1  UNK1        0.0280
     25 C         -13.9917  -11.3080   -8.4763 C.3     1  UNK1        0.0280
     26 C         -13.7206   -8.8684   -5.7809 C.2     1  UNK1        0.2179
     27 C         -13.5339   -9.8210   -4.6152 C.3     1  UNK1        0.0510
     28 C         -12.9721   -9.1453   -3.3622 C.3     1  UNK1        0.1076
     29 CA        -16.2092  -10.2352    3.2316 C.3     4  LEU4        0.0997
     30 CB        -16.8264  -11.4622    2.5255 C.3     4  LEU4       -0.0236
     31 CA        -12.5394   -9.3865    3.1907 C.3     5  TRP5        0.1034
     32 C         -13.2802  -10.3772  -10.6042 C.ar    1  UNK1        0.0298
     33 CG        -16.8330  -12.8052    3.2767 C.3     4  LEU4       -0.0446
     34 CB        -11.7020   -8.1919    3.6559 C.3     5  TRP5        0.0013
     35 C         -14.7069  -10.4246    3.5609 C.2     4  LEU4        0.2340
     36 CA        -11.8856  -11.0087   -0.1714 C.3     6  ASP6        0.1045
     37 C         -13.8815   -8.0119   -2.8246 C.2     1  UNK1        0.2344
     38 CG        -12.0936   -6.8557    3.0889 C.ar    5  TRP5       -0.0201
     39 C         -12.5463   -9.5535    1.6566 C.2     5  TRP5        0.2343
     40 C         -11.8491   -9.9429   -1.3009 C.2     6  ASP6        0.2343
     41 CA        -16.1664   -7.4809   -2.0317 C.3     2  ASP2        0.1045
     42 CD2       -17.5832  -12.7330    4.6033 C.3     4  LEU4       -0.0626
     43 CD1       -17.4440  -13.8908    2.3831 C.3     4  LEU4       -0.0626
     44 C         -17.2155   -6.8540    1.5655 C.3     3  UNK3        0.1311
     45 C         -12.8560  -11.5668  -11.2207 C.ar    1  UNK1       -0.0407
     46 C         -12.6573   -9.1913  -11.0185 C.ar    1  UNK1       -0.0407
     47 CD2       -13.0224   -5.9058    3.6292 C.ar    5  TRP5        0.0029
     48 C         -16.6659   -7.7925    2.7238 C.2     3  UNK3        0.2390
     49 CB        -10.8793  -12.0894   -0.5553 C.3     6  ASP6        0.0138
     50 CD1       -11.6053   -6.3083    1.9184 C.ar    5  TRP5        0.0060
     51 CE2       -13.0438   -4.8048    2.7709 C.ar    5  TRP5        0.0467
     52 C         -16.2204   -7.8394   -0.5296 C.2     2  ASP2        0.2345
     53 CB        -17.5608   -7.6501   -2.6259 C.3     2  ASP2        0.0138
     54 C         -11.8661  -11.5725  -12.2102 C.ar    1  UNK1       -0.0600
     55 C         -11.6581   -9.1895  -11.9995 C.ar    1  UNK1       -0.0600
     56 C         -17.5476   -5.4152    2.0416 C.ar    3  UNK3        0.0189
     57 CE3       -13.8602   -5.8851    4.7617 C.ar    5  TRP5       -0.0523
     58 C         -11.2659  -10.3806  -12.5995 C.ar    1  UNK1       -0.0616
     59 CZ2       -13.8269   -3.6687    3.0103 C.ar    5  TRP5       -0.0378
     60 CG        -10.8943  -13.2396    0.4353 C.2     6  ASP6        0.0440
     61 CZ3       -14.6504   -4.7588    5.0163 C.ar    5  TRP5       -0.0611
     62 C         -17.6323   -4.2410    1.2964 C.ar    3  UNK3       -0.0493
     63 CH2       -14.6178   -3.6606    4.1617 C.ar    5  TRP5       -0.0598
     64 CG        -18.0298   -9.0925   -2.4286 C.2     2  ASP2        0.0440
     65 C         -17.8674   -3.0770    2.0888 C.ar    3  UNK3       -0.0544
     66 C         -18.0482   -3.3918    3.4124 C.ar    3  UNK3       -0.0240
     67 H         -13.5951  -10.7062   -2.0421 H       1  UNK1        0.1495
     68 H         -14.4165   -8.4728    3.1464 H       5  TRP5        0.1495
     69 H         -16.2675   -9.2586    1.3467 H       4  LEU4        0.1495
     70 H         -11.2096  -11.1035    1.7839 H       6  ASP6        0.1495
     71 H         -15.5285   -9.3032   -2.8069 H       2  ASP2        0.1495
     72 H         -16.2372   -5.8612   -0.0593 H       3  UNK3        0.1498
     73 HE1       -12.0740   -4.5185    0.9040 H       5  TRP5        0.1653
     74 H         -13.5725   -7.9948   -8.2853 H       1  UNK1        0.0480
     75 H         -15.2288   -7.7163   -7.7418 H       1  UNK1        0.0480
     76 H         -15.7266  -10.8715   -7.2213 H       1  UNK1        0.0480
     77 H         -14.3149  -11.4446   -6.3391 H       1  UNK1        0.0480
     78 H         -16.0962   -9.5182   -9.1240 H       1  UNK1        0.0479
     79 H         -15.1260   -8.5135  -10.1618 H       1  UNK1        0.0479
     80 H         -12.9065  -11.3638   -8.3125 H       1  UNK1        0.0479
     81 H         -14.3537  -12.3198   -8.6902 H       1  UNK1        0.0479
     82 H         -12.8310  -10.6023   -4.9318 H       1  UNK1        0.0381
     83 H         -14.4933  -10.3040   -4.4000 H       1  UNK1        0.0381
     84 H         -11.9996   -8.6974   -3.5981 H       1  UNK1        0.0599
     85 HA        -16.7225  -10.0289    4.1762 H       4  LEU4        0.0594
     86 HB1       -16.3071  -11.6081    1.5677 H       4  LEU4        0.0290
     87 HB2       -17.8653  -11.2135    2.2602 H       4  LEU4        0.0290
     88 HA        -12.1315  -10.2975    3.6446 H       5  TRP5        0.0598
     89 HG        -15.8063  -13.1210    3.4797 H       4  LEU4        0.0296
     90 HB1       -10.6485   -8.3744    3.4097 H       5  TRP5        0.0337
     91 HB2       -11.7521   -8.1275    4.7519 H       5  TRP5        0.0337
     92 HA        -12.8951  -11.4384   -0.1099 H       6  ASP6        0.0598
     93 HA        -15.8488   -6.4391   -2.1507 H       2  ASP2        0.0598
     94 HD21      -18.6384  -12.4846    4.4505 H       4  LEU4        0.0232
     95 HD22      -17.1468  -11.9831    5.2700 H       4  LEU4        0.0232
     96 HD23      -17.5339  -13.6959    5.1221 H       4  LEU4        0.0232
     97 HD11      -18.4915  -13.6742    2.1483 H       4  LEU4        0.0232
     98 HD12      -17.3988  -14.8678    2.8751 H       4  LEU4        0.0232
     99 HD13      -16.8947  -13.9710    1.4386 H       4  LEU4        0.0232
    100 H         -18.1717   -7.3036    1.2634 H       3  UNK3        0.0651
    101 H         -13.3224  -12.5098  -10.9463 H       1  UNK1        0.0636
    102 H         -12.9120   -8.2393  -10.5634 H       1  UNK1        0.0636
    103 HB1        -9.8623  -11.6803   -0.5842 H       6  ASP6        0.0348
    104 HB2       -11.0994  -12.4684   -1.5608 H       6  ASP6        0.0348
    105 HD1       -10.9165   -6.7062    1.1834 H       5  TRP5        0.0810
    106 HB1       -17.5593   -7.4374   -3.7024 H       2  ASP2        0.0348
    107 HB2       -18.2700   -6.9636   -2.1502 H       2  ASP2        0.0348
    108 H         -11.5716  -12.5095  -12.6736 H       1  UNK1        0.0618
    109 H         -11.1861   -8.2532  -12.2839 H       1  UNK1        0.0618
    110 HE3       -13.9248   -6.7511    5.4152 H       5  TRP5        0.0624
    111 H         -10.4939  -10.3794  -13.3636 H       1  UNK1        0.0618
    112 HZ2       -13.8358   -2.8308    2.3223 H       5  TRP5        0.0638
    113 HZ3       -15.3229   -4.7645    5.8703 H       5  TRP5        0.0618
    114 H         -17.4901   -4.1977    0.2244 H       3  UNK3        0.0626
    115 HH2       -15.2490   -2.8018    4.3702 H       5  TRP5        0.0618
    116 H         -17.8916   -2.0639    1.7087 H       3  UNK3        0.0623
    117 H         -18.2043   -2.7200    4.2466 H       3  UNK3        0.0693
@<TRIPOS>BOND
     1     1    56   ar
     2     1    66   ar
     3     2    26    2
     4     3    35    2
     5     4    37    2
     6     5    39    2
     7     6    40    2
     8     7    48    2
     9     8    52    2
    10     9    60   ar
    11    10    60   ar
    12    11    64   ar
    13    12    64   ar
    14    13    22    1
    15    13    23    1
    16    14    24    1
    17    14    25    1
    18    14    32    1
    19    15    28    1
    20    15    40   am
    21    16    35   am
    22    16    31    1
    23    17    48   am
    24    17    29    1
    25    18    39   am
    26    18    36    1
    27    19    37   am
    28    19    41    1
    29    20    52   am
    30    20    44    1
    31    21    50   ar
    32    21    51   ar
    33    22    24    1
    34    23    25    1
    35    26    27    1
    36    26    13   am
    37    28    37    1
    38    28    27    1
    39    29    35    1
    40    29    30    1
    41    30    33    1
    42    31    39    1
    43    31    34    1
    44    32    45   ar
    45    32    46   ar
    46    33    43    1
    47    33    42    1
    48    34    38    1
    49    36    40    1
    50    36    49    1
    51    38    47   ar
    52    38    50   ar
    53    41    52    1
    54    41    53    1
    55    44    48    1
    56    44    56    1
    57    45    54   ar
    58    46    55   ar
    59    47    57   ar
    60    47    51   ar
    61    49    60    1
    62    51    59   ar
    63    53    64    1
    64    54    58   ar
    65    55    58   ar
    66    56    62   ar
    67    57    61   ar
    68    59    63   ar
    69    61    63   ar
    70    62    65   ar
    71    65    66   ar
    72    15    67    1
    73    16    68    1
    74    17    69    1
    75    18    70    1
    76    19    71    1
    77    20    72    1
    78    21    73    1
    79    22    74    1
    80    22    75    1
    81    23    76    1
    82    23    77    1
    83    24    78    1
    84    24    79    1
    85    25    80    1
    86    25    81    1
    87    27    82    1
    88    27    83    1
    89    28    84    1
    90    29    85    1
    91    30    86    1
    92    30    87    1
    93    31    88    1
    94    33    89    1
    95    34    90    1
    96    34    91    1
    97    36    92    1
    98    41    93    1
    99    42    94    1
   100    42    95    1
   101    42    96    1
   102    43    97    1
   103    43    98    1
   104    43    99    1
   105    44   100    1
   106    45   101    1
   107    46   102    1
   108    49   103    1
   109    49   104    1
   110    50   105    1
   111    53   106    1
   112    53   107    1
   113    54   108    1
   114    55   109    1
   115    57   110    1
   116    58   111    1
   117    59   112    1
   118    61   113    1
   119    62   114    1
   120    63   115    1
   121    65   116    1
   122    66   117    1
@<TRIPOS>MOLECULE
123882
 117 122 0 0 0
SMALL
GASTEIGER

@<TRIPOS>ATOM
      1 S         -19.0156   -4.8433    2.2637 S.2     3  UNK3       -0.0993
      2 O         -12.8187   -7.7464   -5.7601 O.2     1  UNK1       -0.2755
      3 O         -14.2371  -11.1773    4.3188 O.2     4  LEU4       -0.2738
      4 O         -13.5584   -6.8961   -2.2394 O.2     1  UNK1       -0.2737
      5 O         -13.3839   -9.2773    0.7397 O.2     5  TRP5       -0.2738
      6 O         -10.5460   -9.3903   -1.6674 O.2     6  ASP6       -0.2738
      7 O         -17.0873   -7.4966    3.7368 O.2     3  UNK3       -0.2734
      8 O         -16.8681   -9.0405   -0.4301 O.2     2  ASP2       -0.2737
      9 OD1       -10.6877  -13.1017    1.5716 O.co2   6  ASP6       -0.5497
     10 OD2       -11.1705  -14.3826   -0.2639 O.co2   6  ASP6       -0.5497
     11 OD1       -16.6717   -6.9151   -5.0260 O.co2   2  ASP2       -0.5497
     12 OD2       -18.7787   -6.2894   -4.4304 O.co2   2  ASP2       -0.5497
     13 N         -14.3023   -9.2023   -6.7325 N.am    1  UNK1       -0.2984
     14 N         -16.5739   -9.7947   -8.5284 N.pl3   1  UNK1       -0.3269
     15 N         -12.7073  -10.0079   -2.1770 N.am    1  UNK1       -0.3020
     16 N         -13.8705   -9.1556    3.2939 N.am    5  TRP5       -0.3022
     17 N         -16.3756   -9.0384    2.2331 N.am    4  LEU4       -0.3022
     18 N         -11.4653  -10.4947    1.0008 N.am    6  ASP6       -0.3021
     19 N         -15.2278   -8.3877   -2.7069 N.am    2  ASP2       -0.3021
     20 N         -16.5411   -6.8590    0.1296 N.am    3  UNK3       -0.2984
     21 NE1        -8.1592   -8.2755    2.1947 N.ar    5  TRP5       -0.3604
     22 C         -14.8954  -10.5371   -6.8565 C.3     1  UNK1        0.0304
     23 C         -14.7534   -8.2096   -7.7139 C.3     1  UNK1        0.0304
     24 C         -15.4955  -10.7664   -8.2551 C.3     1  UNK1        0.0280
     25 C         -16.2407   -8.3938   -8.0878 C.3     1  UNK1        0.0280
     26 C         -13.4777   -8.7922   -5.6984 C.2     1  UNK1        0.2179
     27 C         -13.3477   -9.7342   -4.5216 C.3     1  UNK1        0.0510
     28 C         -12.8954   -9.0187   -3.2474 C.3     1  UNK1        0.1076
     29 CA        -16.1359  -10.0928    3.2295 C.3     4  LEU4        0.0997
     30 CB        -16.7848  -11.4300    2.8148 C.3     4  LEU4       -0.0236
     31 CA        -12.4462   -9.3599    2.9800 C.3     5  TRP5        0.1034
     32 C         -17.9240  -10.1474   -8.3359 C.ar    1  UNK1        0.0298
     33 CG        -16.3497  -12.0511    1.4664 C.3     4  LEU4       -0.0446
     34 CB        -11.6717   -8.0685    3.2643 C.3     5  TRP5        0.0013
     35 C         -14.6562  -10.2349    3.6501 C.2     4  LEU4        0.2340
     36 CA        -11.6031  -11.1333   -0.3071 C.3     6  ASP6        0.1045
     37 C         -13.9112   -7.9717   -2.7221 C.2     1  UNK1        0.2344
     38 CG        -10.1852   -8.1645    3.1248 C.ar    5  TRP5       -0.0201
     39 C         -12.4801   -9.6974    1.4710 C.2     5  TRP5        0.2343
     40 C         -11.5387  -10.0774   -1.4373 C.2     6  ASP6        0.2343
     41 CA        -16.2987   -7.5127   -2.2451 C.3     2  ASP2        0.1045
     42 CD2       -14.9470  -12.6541    1.5009 C.3     4  LEU4       -0.0626
     43 CD1       -17.3467  -13.1421    1.0565 C.3     4  LEU4       -0.0626
     44 C         -17.3374   -6.8947    1.3575 C.3     3  UNK3        0.1311
     45 C         -18.9477   -9.2000   -8.5378 C.ar    1  UNK1       -0.0407
     46 C         -18.3489  -11.4330   -7.9615 C.ar    1  UNK1       -0.0407
     47 CD2        -9.2001   -8.2393    4.1631 C.ar    5  TRP5        0.0029
     48 C         -16.8708   -7.7936    2.5591 C.2     3  UNK3        0.2390
     49 CB        -10.4988  -12.1500   -0.5617 C.3     6  ASP6        0.0138
     50 CD1        -9.4924   -8.1490    1.9273 C.ar    5  TRP5        0.0060
     51 CE2        -7.9457   -8.2941    3.5510 C.ar    5  TRP5        0.0467
     52 C         -16.5827   -7.8914   -0.7749 C.2     2  ASP2        0.2345
     53 CB        -17.5992   -7.7341   -3.0121 C.3     2  ASP2        0.0138
     54 C         -20.3002   -9.4958   -8.3267 C.ar    1  UNK1       -0.0600
     55 C         -19.7024  -11.7416   -7.7555 C.ar    1  UNK1       -0.0600
     56 C         -17.4678   -5.4667    1.8517 C.ar    3  UNK3        0.0189
     57 CE3        -9.2538   -8.2606    5.5722 C.ar    5  TRP5       -0.0523
     58 C         -20.6785  -10.7698   -7.9300 C.ar    1  UNK1       -0.0616
     59 CZ2        -6.7479   -8.3652    4.2729 C.ar    5  TRP5       -0.0378
     60 CG        -10.8148  -13.3308    0.3336 C.2     6  ASP6        0.0440
     61 CZ3        -8.0645   -8.3248    6.3113 C.ar    5  TRP5       -0.0611
     62 C         -16.4787   -4.5178    2.0510 C.ar    3  UNK3       -0.0493
     63 CH2        -6.8307   -8.3757    5.6675 C.ar    5  TRP5       -0.0598
     64 CG        -17.6794   -6.8942   -4.2739 C.2     2  ASP2        0.0440
     65 C         -16.9959   -3.2867    2.5479 C.ar    3  UNK3       -0.0544
     66 C         -18.3601   -3.3333    2.7215 C.ar    3  UNK3       -0.0240
     67 H         -13.5396  -10.2838   -1.6659 H       1  UNK1        0.1495
     68 H         -14.3372   -8.5508    2.6202 H       5  TRP5        0.1495
     69 H         -16.2215   -9.2476    1.2437 H       4  LEU4        0.1495
     70 H         -11.0356  -11.1185    1.6928 H       6  ASP6        0.1495
     71 H         -15.4694   -9.3494   -2.8791 H       2  ASP2        0.1495
     72 H         -16.3699   -5.9443   -0.2718 H       3  UNK3        0.1498
     73 HE1        -7.4380   -8.3396    1.4893 H       5  TRP5        0.1653
     74 H         -15.6754  -10.6297   -6.0918 H       1  UNK1        0.0480
     75 H         -14.1210  -11.2831   -6.6502 H       1  UNK1        0.0480
     76 H         -14.1255   -8.3354   -8.6031 H       1  UNK1        0.0480
     77 H         -14.5906   -7.1928   -7.3393 H       1  UNK1        0.0480
     78 H         -14.7130  -10.6131   -9.0105 H       1  UNK1        0.0479
     79 H         -15.7970  -11.8083   -8.3872 H       1  UNK1        0.0479
     80 H         -16.8401   -8.1347   -7.2093 H       1  UNK1        0.0479
     81 H         -16.4846   -7.6961   -8.8972 H       1  UNK1        0.0479
     82 H         -12.6074  -10.4965   -4.7962 H       1  UNK1        0.0381
     83 H         -14.2920  -10.2572   -4.3478 H       1  UNK1        0.0381
     84 H         -11.9531   -8.4916   -3.4333 H       1  UNK1        0.0599
     85 HA        -16.6393   -9.7849    4.1559 H       4  LEU4        0.0594
     86 HB1       -17.8686  -11.2532    2.7686 H       4  LEU4        0.0290
     87 HB2       -16.6327  -12.1699    3.6116 H       4  LEU4        0.0290
     88 HA        -12.0553  -10.2118    3.5477 H       5  TRP5        0.0598
     89 HG        -16.3722  -11.2898    0.6822 H       4  LEU4        0.0296
     90 HB1       -11.9059   -7.7345    4.2838 H       5  TRP5        0.0337
     91 HB2       -12.0324   -7.2658    2.6059 H       5  TRP5        0.0337
     92 HA        -12.5842  -11.6254   -0.3265 H       6  ASP6        0.0598
     93 HA        -15.9759   -6.4677   -2.3062 H       2  ASP2        0.0598
     94 HD21      -14.8504  -13.3987    2.2976 H       4  LEU4        0.0232
     95 HD22      -14.1873  -11.8885    1.6539 H       4  LEU4        0.0232
     96 HD23      -14.7126  -13.1466    0.5503 H       4  LEU4        0.0232
     97 HD11      -17.3698  -13.9558    1.7892 H       4  LEU4        0.0232
     98 HD12      -17.0779  -13.5688    0.0838 H       4  LEU4        0.0232
     99 HD13      -18.3587  -12.7331    0.9678 H       4  LEU4        0.0232
    100 H         -18.3249   -7.2841    1.0719 H       3  UNK3        0.0651
    101 H         -18.7055   -8.1854   -8.8439 H       1  UNK1        0.0636
    102 H         -17.6448  -12.2353   -7.7796 H       1  UNK1        0.0636
    103 HB1        -9.5075  -11.7503   -0.3200 H       6  ASP6        0.0348
    104 HB2       -10.4865  -12.4637   -1.6125 H       6  ASP6        0.0348
    105 HD1        -9.8417   -8.0969    0.9000 H       5  TRP5        0.0810
    106 HB1       -18.4551   -7.4659   -2.3770 H       2  ASP2        0.0348
    107 HB2       -17.7312   -8.7880   -3.2871 H       2  ASP2        0.0348
    108 H         -21.0443   -8.7144   -8.4527 H       1  UNK1        0.0618
    109 H         -19.9829  -12.7413   -7.4363 H       1  UNK1        0.0618
    110 HE3       -10.2107   -8.2292    6.0856 H       5  TRP5        0.0624
    111 H         -21.7233  -10.9974   -7.7440 H       1  UNK1        0.0618
    112 HZ2        -5.7887   -8.4152    3.7694 H       5  TRP5        0.0638
    113 HZ3        -8.1097   -8.3427    7.3965 H       5  TRP5        0.0618
    114 H         -15.4286   -4.7030    1.8534 H       3  UNK3        0.0626
    115 HH2        -5.9181   -8.4321    6.2556 H       5  TRP5        0.0618
    116 H         -16.3942   -2.4154    2.7736 H       3  UNK3        0.0623
    117 H         -19.0083   -2.5529    3.0930 H       3  UNK3        0.0693
@<TRIPOS>BOND
     1     1    56   ar
     2     1    66   ar
     3     2    26    2
     4     3    35    2
     5     4    37    2
     6     5    39    2
     7     6    40    2
     8     7    48    2
     9     8    52    2
    10     9    60   ar
    11    10    60   ar
    12    11    64   ar
    13    12    64   ar
    14    13    22    1
    15    13    23    1
    16    14    24    1
    17    14    25    1
    18    14    32    1
    19    15    28    1
    20    15    40   am
    21    16    35   am
    22    16    31    1
    23    17    48   am
    24    17    29    1
    25    18    39   am
    26    18    36    1
    27    19    37   am
    28    19    41    1
    29    20    52   am
    30    20    44    1
    31    21    50   ar
    32    21    51   ar
    33    22    24    1
    34    23    25    1
    35    26    27    1
    36    26    13   am
    37    28    37    1
    38    28    27    1
    39    29    35    1
    40    29    30    1
    41    30    33    1
    42    31    39    1
    43    31    34    1
    44    32    45   ar
    45    32    46   ar
    46    33    43    1
    47    33    42    1
    48    34    38    1
    49    36    40    1
    50    36    49    1
    51    38    47   ar
    52    38    50   ar
    53    41    52    1
    54    41    53    1
    55    44    48    1
    56    44    56    1
    57    45    54   ar
    58    46    55   ar
    59    47    57   ar
    60    47    51   ar
    61    49    60    1
    62    51    59   ar
    63    53    64    1
    64    54    58   ar
    65    55    58   ar
    66    56    62   ar
    67    57    61   ar
    68    59    63   ar
    69    61    63   ar
    70    62    65   ar
    71    65    66   ar
    72    15    67    1
    73    16    68    1
    74    17    69    1
    75    18    70    1
    76    19    71    1
    77    20    72    1
    78    21    73    1
    79    22    74    1
    80    22    75    1
    81    23    76    1
    82    23    77    1
    83    24    78    1
    84    24    79    1
    85    25    80    1
    86    25    81    1
    87    27    82    1
    88    27    83    1
    89    28    84    1
    90    29    85    1
    91    30    86    1
    92    30    87    1
    93    31    88    1
    94    33    89    1
    95    34    90    1
    96    34    91    1
    97    36    92    1
    98    41    93    1
    99    42    94    1
   100    42    95    1
   101    42    96    1
   102    43    97    1
   103    43    98    1
   104    43    99    1
   105    44   100    1
   106    45   101    1
   107    46   102    1
   108    49   103    1
   109    49   104    1
   110    50   105    1
   111    53   106    1
   112    53   107    1
   113    54   108    1
   114    55   109    1
   115    57   110    1
   116    58   111    1
   117    59   112    1
   118    61   113    1
   119    62   114    1
   120    63   115    1
   121    65   116    1
   122    66   117    1
@<TRIPOS>MOLECULE
123882
 117 122 0 0 0
SMALL
GASTEIGER

@<TRIPOS>ATOM
      1 S         -16.0422   -4.3090    1.9006 S.2     3  UNK3       -0.0993
      2 O         -11.3869  -10.8075   -4.9795 O.2     1  UNK1       -0.2755
      3 O         -14.2582  -11.2459    4.3723 O.2     4  LEU4       -0.2738
      4 O         -13.5278   -6.8511   -2.6911 O.2     1  UNK1       -0.2737
      5 O         -13.4240   -9.2126    0.8976 O.2     5  TRP5       -0.2738
      6 O         -10.8121   -9.1454   -1.4014 O.2     6  ASP6       -0.2738
      7 O         -17.1162   -7.5232    3.8456 O.2     3  UNK3       -0.2734
      8 O         -17.0616   -8.9694   -0.3250 O.2     2  ASP2       -0.2737
      9 OD1       -10.6656  -13.0356    1.6269 O.co2   6  ASP6       -0.5497
     10 OD2       -11.2377  -14.3491   -0.1574 O.co2   6  ASP6       -0.5497
     11 OD1       -16.3845   -7.7261   -5.0470 O.co2   2  ASP2       -0.5497
     12 OD2       -18.4949   -6.8853   -4.8483 O.co2   2  ASP2       -0.5497
     13 N         -13.1601  -11.5122   -6.2487 N.am    1  UNK1       -0.2984
     14 N         -13.2936  -11.7240   -9.1483 N.pl3   1  UNK1       -0.3269
     15 N         -12.7273  -10.1311   -2.2243 N.am    1  UNK1       -0.3020
     16 N         -13.8722   -9.1765    3.4551 N.am    5  TRP5       -0.3022
     17 N         -16.3331   -9.0211    2.3278 N.am    4  LEU4       -0.3022
     18 N         -11.5269  -10.4808    1.0972 N.am    6  ASP6       -0.3021
     19 N         -15.1351   -8.4701   -2.4341 N.am    2  ASP2       -0.3021
     20 N         -16.4451   -6.8707    0.2552 N.am    3  UNK3       -0.2984
     21 NE1        -8.1918   -8.2875    2.2435 N.ar    5  TRP5       -0.3604
     22 C         -14.3637  -11.0773   -6.9739 C.3     1  UNK1        0.0304
     23 C         -12.3252  -12.4843   -6.9567 C.3     1  UNK1        0.0304
     24 C         -14.5403  -11.7845   -8.3344 C.3     1  UNK1        0.0280
     25 C         -12.0416  -11.9848   -8.3809 C.3     1  UNK1        0.0280
     26 C         -12.5828  -10.7225   -5.2535 C.2     1  UNK1        0.2179
     27 C         -13.5283   -9.7715   -4.5407 C.3     1  UNK1        0.0510
     28 C         -12.9215   -9.1414   -3.2843 C.3     1  UNK1        0.1076
     29 CA        -16.1332  -10.1107    3.2935 C.3     4  LEU4        0.0997
     30 CB        -16.7868  -11.4259    2.8180 C.3     4  LEU4       -0.0236
     31 CA        -12.4523   -9.3741    3.1161 C.3     5  TRP5        0.1034
     32 C         -13.2349  -10.9063  -10.2814 C.ar    1  UNK1        0.0298
     33 CG        -16.3337  -12.0064    1.4569 C.3     4  LEU4       -0.0446
     34 CB        -11.6747   -8.0867    3.4114 C.3     5  TRP5        0.0013
     35 C         -14.6625  -10.2743    3.7398 C.2     4  LEU4        0.2340
     36 CA        -11.7045  -11.0938   -0.2176 C.3     6  ASP6        0.1045
     37 C         -13.8667   -8.0316   -2.7646 C.2     1  UNK1        0.2344
     38 CG        -10.1910   -8.1735    3.2279 C.ar    5  TRP5       -0.0201
     39 C         -12.5157   -9.6718    1.6002 C.2     5  TRP5        0.2343
     40 C         -11.6829  -10.0105   -1.3203 C.2     6  ASP6        0.2343
     41 CA        -16.2229   -7.5589   -2.1199 C.3     2  ASP2        0.1045
     42 CD2       -14.9394  -12.6266    1.4981 C.3     4  LEU4       -0.0626
     43 CD1       -17.3316  -13.0750    0.9923 C.3     4  LEU4       -0.0626
     44 C         -17.2344   -6.8463    1.4813 C.3     3  UNK3        0.1311
     45 C         -12.0281  -10.3620  -10.7595 C.ar    1  UNK1       -0.0407
     46 C         -14.3768  -10.6031  -11.0428 C.ar    1  UNK1       -0.0407
     47 CD2        -9.1781   -8.2327    4.2416 C.ar    5  TRP5        0.0029
     48 C         -16.8366   -7.7845    2.6721 C.2     3  UNK3        0.2390
     49 CB        -10.6140  -12.1099   -0.5282 C.3     6  ASP6        0.0138
     50 CD1        -9.5321   -8.1615    2.0147 C.ar    5  TRP5        0.0060
     51 CE2        -7.9412   -8.2914    3.5953 C.ar    5  TRP5        0.0467
     52 C         -16.6172   -7.8733   -0.6658 C.2     2  ASP2        0.2345
     53 CB        -17.4776   -7.8118   -2.9525 C.3     2  ASP2        0.0138
     54 C         -11.9752   -9.4989  -11.8630 C.ar    1  UNK1       -0.0600
     55 C         -14.3365   -9.7433  -12.1500 C.ar    1  UNK1       -0.0600
     56 C         -17.3494   -5.4207    1.9874 C.ar    3  UNK3        0.0189
     57 CE3        -9.1926   -8.2370    5.6527 C.ar    5  TRP5       -0.0523
     58 C         -13.1351   -9.1774  -12.5516 C.ar    1  UNK1       -0.0616
     59 CZ2        -6.7235   -8.3531    4.2843 C.ar    5  TRP5       -0.0378
     60 CG        -10.8606  -13.2832    0.4002 C.2     6  ASP6        0.0440
     61 CZ3        -7.9832   -8.2898    6.3580 C.ar    5  TRP5       -0.0611
     62 C         -18.4528   -4.8394    2.5901 C.ar    3  UNK3       -0.0493
     63 CH2        -6.7675   -8.3464    5.6810 C.ar    5  TRP5       -0.0598
     64 CG        -17.4313   -7.4167   -4.4165 C.2     2  ASP2        0.0440
     65 C         -18.2283   -3.4843    2.9628 C.ar    3  UNK3       -0.0544
     66 C         -16.9618   -3.0646    2.6275 C.ar    3  UNK3       -0.0240
     67 H         -13.5244  -10.6717   -1.9188 H       1  UNK1        0.1495
     68 H         -14.3348   -8.5373    2.8136 H       5  TRP5        0.1495
     69 H         -16.1420   -9.2005    1.3402 H       4  LEU4        0.1495
     70 H         -11.0761  -11.1153    1.7661 H       6  ASP6        0.1495
     71 H         -15.3622   -9.4512   -2.4787 H       2  ASP2        0.1495
     72 H         -16.0379   -6.0013   -0.0660 H       3  UNK3        0.1498
     73 HE1        -7.4916   -8.3599    1.5195 H       5  TRP5        0.1653
     74 H         -14.2896   -9.9980   -7.1471 H       1  UNK1        0.0480
     75 H         -15.2328  -11.2649   -6.3346 H       1  UNK1        0.0480
     76 H         -12.8698  -13.4359   -6.9775 H       1  UNK1        0.0480
     77 H         -11.3858  -12.6649   -6.4245 H       1  UNK1        0.0480
     78 H         -14.7754  -12.8436   -8.1683 H       1  UNK1        0.0479
     79 H         -15.4189  -11.3596   -8.8234 H       1  UNK1        0.0479
     80 H         -11.4594  -11.0622   -8.2717 H       1  UNK1        0.0479
     81 H         -11.4370  -12.7244   -8.9180 H       1  UNK1        0.0479
     82 H         -14.4387  -10.3274   -4.2881 H       1  UNK1        0.0381
     83 H         -13.7946   -8.9736   -5.2423 H       1  UNK1        0.0381
     84 H         -11.9593   -8.6726   -3.5230 H       1  UNK1        0.0599
     85 HA        -16.6553   -9.8267    4.2170 H       4  LEU4        0.0594
     86 HB1       -17.8676  -11.2359    2.7566 H       4  LEU4        0.0290
     87 HB2       -16.6580  -12.1948    3.5912 H       4  LEU4        0.0290
     88 HA        -12.0534  -10.2390    3.6565 H       5  TRP5        0.0598
     89 HG        -16.3333  -11.2187    0.6984 H       4  LEU4        0.0296
     90 HB1       -11.8856   -7.7782    4.4445 H       5  TRP5        0.0337
     91 HB2       -12.0532   -7.2694    2.7812 H       5  TRP5        0.0337
     92 HA        -12.6874  -11.5806   -0.2126 H       6  ASP6        0.0598
     93 HA        -15.8967   -6.5183   -2.2160 H       2  ASP2        0.0598
     94 HD21      -14.8697  -13.4075    2.2623 H       4  LEU4        0.0232
     95 HD22      -14.1767  -11.8775    1.7059 H       4  LEU4        0.0232
     96 HD23      -14.6873  -13.0787    0.5320 H       4  LEU4        0.0232
     97 HD11      -17.3697  -13.9152    1.6937 H       4  LEU4        0.0232
     98 HD12      -17.0505  -13.4677    0.0089 H       4  LEU4        0.0232
     99 HD13      -18.3401  -12.6575    0.9039 H       4  LEU4        0.0232
    100 H         -18.2448   -7.1774    1.1978 H       3  UNK3        0.0651
    101 H         -11.0828  -10.5730  -10.2699 H       1  UNK1        0.0636
    102 H         -15.3411  -11.0383  -10.8016 H       1  UNK1        0.0636
    103 HB1        -9.6124  -11.7003   -0.3524 H       6  ASP6        0.0348
    104 HB2       -10.6620  -12.4339   -1.5745 H       6  ASP6        0.0348
    105 HD1        -9.9098   -8.1168    0.9989 H       5  TRP5        0.0810
    106 HB1       -18.3158   -7.2706   -2.4885 H       2  ASP2        0.0348
    107 HB2       -17.7500   -8.8749   -2.9240 H       2  ASP2        0.0348
    108 H         -11.0224   -9.0741  -12.1663 H       1  UNK1        0.0618
    109 H         -15.2535   -9.5171  -12.6868 H       1  UNK1        0.0618
    110 HE3       -10.1350   -8.2011    6.1907 H       5  TRP5        0.0624
    111 H         -13.1026   -8.4965  -13.3957 H       1  UNK1        0.0618
    112 HZ2        -5.7791   -8.4081    3.7543 H       5  TRP5        0.0638
    113 HZ3        -7.9982   -8.2937    7.4442 H       5  TRP5        0.0618
    114 H         -19.3757   -5.3775    2.7726 H       3  UNK3        0.0626
    115 HH2        -5.8389   -8.3949    6.2438 H       5  TRP5        0.0618
    116 H         -18.9580   -2.8532    3.4542 H       3  UNK3        0.0623
    117 H         -16.5234   -2.0895    2.7860 H       3  UNK3        0.0693
@<TRIPOS>BOND
     1     1    56   ar
     2     1    66   ar
     3     2    26    2
     4     3    35    2
     5     4    37    2
     6     5    39    2
     7     6    40    2
     8     7    48    2
     9     8    52    2
    10     9    60   ar
    11    10    60   ar
    12    11    64   ar
    13    12    64   ar
    14    13    22    1
    15    13    23    1
    16    14    24    1
    17    14    25    1
    18    14    32    1
    19    15    28    1
    20    15    40   am
    21    16    35   am
    22    16    31    1
    23    17    48   am
    24    17    29    1
    25    18    39   am
    26    18    36    1
    27    19    37   am
    28    19    41    1
    29    20    52   am
    30    20    44    1
    31    21    50   ar
    32    21    51   ar
    33    22    24    1
    34    23    25    1
    35    26    27    1
    36    26    13   am
    37    28    37    1
    38    28    27    1
    39    29    35    1
    40    29    30    1
    41    30    33    1
    42    31    39    1
    43    31    34    1
    44    32    45   ar
    45    32    46   ar
    46    33    43    1
    47    33    42    1
    48    34    38    1
    49    36    40    1
    50    36    49    1
    51    38    47   ar
    52    38    50   ar
    53    41    52    1
    54    41    53    1
    55    44    48    1
    56    44    56    1
    57    45    54   ar
    58    46    55   ar
    59    47    57   ar
    60    47    51   ar
    61    49    60    1
    62    51    59   ar
    63    53    64    1
    64    54    58   ar
    65    55    58   ar
    66    56    62   ar
    67    57    61   ar
    68    59    63   ar
    69    61    63   ar
    70    62    65   ar
    71    65    66   ar
    72    15    67    1
    73    16    68    1
    74    17    69    1
    75    18    70    1
    76    19    71    1
    77    20    72    1
    78    21    73    1
    79    22    74    1
    80    22    75    1
    81    23    76    1
    82    23    77    1
    83    24    78    1
    84    24    79    1
    85    25    80    1
    86    25    81    1
    87    27    82    1
    88    27    83    1
    89    28    84    1
    90    29    85    1
    91    30    86    1
    92    30    87    1
    93    31    88    1
    94    33    89    1
    95    34    90    1
    96    34    91    1
    97    36    92    1
    98    41    93    1
    99    42    94    1
   100    42    95    1
   101    42    96    1
   102    43    97    1
   103    43    98    1
   104    43    99    1
   105    44   100    1
   106    45   101    1
   107    46   102    1
   108    49   103    1
   109    49   104    1
   110    50   105    1
   111    53   106    1
   112    53   107    1
   113    54   108    1
   114    55   109    1
   115    57   110    1
   116    58   111    1
   117    59   112    1
   118    61   113    1
   119    62   114    1
   120    63   115    1
   121    65   116    1
   122    66   117    1
@<TRIPOS>MOLECULE
123882
 117 122 0 0 0
SMALL
GASTEIGER

@<TRIPOS>ATOM
      1 S         -19.0213   -4.8018    2.2333 S.2     3  UNK3       -0.0993
      2 O         -12.8014   -7.7551   -5.7597 O.2     1  UNK1       -0.2755
      3 O         -14.4131  -11.2367    4.3239 O.2     4  LEU4       -0.2738
      4 O         -13.5593   -6.8721   -2.2350 O.2     1  UNK1       -0.2737
      5 O         -13.3974   -9.2276    0.8081 O.2     5  TRP5       -0.2738
      6 O         -10.5587   -9.2522   -1.6016 O.2     6  ASP6       -0.2738
      7 O         -17.2695   -7.5306    3.7047 O.2     3  UNK3       -0.2734
      8 O         -16.8715   -9.0351   -0.4476 O.2     2  ASP2       -0.2737
      9 OD1       -10.5994  -12.8846    1.6901 O.co2   6  ASP6       -0.5497
     10 OD2       -11.0284  -14.2775   -0.0774 O.co2   6  ASP6       -0.5497
     11 OD1       -16.6608   -6.8948   -5.0341 O.co2   2  ASP2       -0.5497
     12 OD2       -18.7838   -6.2990   -4.4564 O.co2   2  ASP2       -0.5497
     13 N         -14.2928   -9.2092   -6.7140 N.am    1  UNK1       -0.2984
     14 N         -16.5640   -9.8072   -8.5114 N.pl3   1  UNK1       -0.3269
     15 N         -12.6775   -9.9715   -2.1530 N.am    1  UNK1       -0.3020
     16 N         -13.9791   -9.2046    3.3483 N.am    5  TRP5       -0.3022
     17 N         -16.4527   -9.0391    2.2193 N.am    4  LEU4       -0.3022
     18 N         -11.4386  -10.3830    1.0740 N.am    6  ASP6       -0.3021
     19 N         -15.2187   -8.3704   -2.7101 N.am    2  ASP2       -0.3021
     20 N         -16.5493   -6.8537    0.1238 N.am    3  UNK3       -0.2984
     21 NE1       -11.5153   -8.2436    7.1742 N.ar    5  TRP5       -0.3604
     22 C         -14.8905  -10.5439   -6.8313 C.3     1  UNK1        0.0304
     23 C         -14.7421   -8.2219   -7.7023 C.3     1  UNK1        0.0304
     24 C         -15.4886  -10.7800   -8.2302 C.3     1  UNK1        0.0280
     25 C         -16.2278   -8.4045   -8.0784 C.3     1  UNK1        0.0280
     26 C         -13.4609   -8.7917   -5.6873 C.2     1  UNK1        0.2179
     27 C         -13.3306   -9.7289   -4.5011 C.3     1  UNK1        0.0510
     28 C         -12.8815   -8.9959   -3.2330 C.3     1  UNK1        0.1076
     29 CA        -16.2548  -10.1009    3.2097 C.3     4  LEU4        0.0997
     30 CB        -16.9001  -11.4338    2.7634 C.3     4  LEU4       -0.0236
     31 CA        -12.5600   -9.4553    3.0783 C.3     5  TRP5        0.1034
     32 C         -17.9159  -10.1553   -8.3242 C.ar    1  UNK1        0.0298
     33 CG        -16.4371  -12.0426    1.4185 C.3     4  LEU4       -0.0446
     34 CB        -11.6679   -8.2785    3.4862 C.3     5  TRP5        0.0013
     35 C         -14.7931  -10.2725    3.6700 C.2     4  LEU4        0.2340
     36 CA        -11.5661  -11.0206   -0.2391 C.3     6  ASP6        0.1045
     37 C         -13.9027   -7.9506   -2.7195 C.2     1  UNK1        0.2344
     38 CG        -11.7066   -7.9921    4.9656 C.ar    5  TRP5       -0.0201
     39 C         -12.5121   -9.6661    1.5496 C.2     5  TRP5        0.2343
     40 C         -11.5267   -9.9764   -1.3813 C.2     6  ASP6        0.2343
     41 CA        -16.2951   -7.4999   -2.2535 C.3     2  ASP2        0.1045
     42 CD2       -15.0095  -12.5848    1.4477 C.3     4  LEU4       -0.0626
     43 CD1       -17.3866  -13.1770    1.0146 C.3     4  LEU4       -0.0626
     44 C         -17.3766   -6.8825    1.3299 C.3     3  UNK3        0.1311
     45 C         -18.9360   -9.2040   -8.5260 C.ar    1  UNK1       -0.0407
     46 C         -18.3464  -11.4406   -7.9555 C.ar    1  UNK1       -0.0407
     47 CD2       -12.2300   -6.8246    5.6134 C.ar    5  TRP5        0.0029
     48 C         -16.9759   -7.8036    2.5373 C.2     3  UNK3        0.2390
     49 CB        -10.4550  -12.0329   -0.4901 C.3     6  ASP6        0.0138
     50 CD1       -11.2585   -8.8340    5.9654 C.ar    5  TRP5        0.0060
     51 CE2       -12.0952   -7.0097    6.9900 C.ar    5  TRP5        0.0467
     52 C         -16.5868   -7.8851   -0.7867 C.2     2  ASP2        0.2345
     53 CB        -17.5920   -7.7238   -3.0248 C.3     2  ASP2        0.0138
     54 C         -20.2903   -9.4956   -8.3189 C.ar    1  UNK1       -0.0600
     55 C         -19.7017  -11.7451   -7.7534 C.ar    1  UNK1       -0.0600
     56 C         -17.4815   -5.4555    1.8367 C.ar    3  UNK3        0.0189
     57 CE3       -12.8230   -5.6279    5.1580 C.ar    5  TRP5       -0.0523
     58 C         -20.6738  -10.7693   -7.9269 C.ar    1  UNK1       -0.0616
     59 CZ2       -12.5200   -6.0637    7.9321 C.ar    5  TRP5       -0.0378
     60 CG        -10.7164  -13.1825    0.4634 C.2     6  ASP6        0.0440
     61 CZ3       -13.2513   -4.6696    6.0850 C.ar    5  TRP5       -0.0611
     62 C         -16.4750   -4.5310    2.0597 C.ar    3  UNK3       -0.0493
     63 CH2       -13.1008   -4.8866    7.4510 C.ar    5  TRP5       -0.0598
     64 CG        -17.6756   -6.8856   -4.2880 C.2     2  ASP2        0.0440
     65 C         -16.9717   -3.2939    2.5622 C.ar    3  UNK3       -0.0544
     66 C         -18.3391   -3.3130    2.7178 C.ar    3  UNK3       -0.0240
     67 H         -13.5104  -10.2822   -1.6632 H       1  UNK1        0.1495
     68 H         -14.4097   -8.5546    2.7014 H       5  TRP5        0.1495
     69 H         -16.2463   -9.2333    1.2370 H       4  LEU4        0.1495
     70 H         -11.0161  -11.0285    1.7532 H       6  ASP6        0.1495
     71 H         -15.4558   -9.3366   -2.8713 H       2  ASP2        0.1495
     72 H         -16.3719   -5.9409   -0.2787 H       3  UNK3        0.1498
     73 HE1       -11.3233   -8.6596    8.0718 H       5  TRP5        0.1653
     74 H         -15.6712  -10.6295   -6.0673 H       1  UNK1        0.0480
     75 H         -14.1178  -11.2906   -6.6199 H       1  UNK1        0.0480
     76 H         -14.1116   -8.3539   -8.5905 H       1  UNK1        0.0480
     77 H         -14.5767   -7.2035   -7.3341 H       1  UNK1        0.0480
     78 H         -14.7044  -10.6328   -8.9851 H       1  UNK1        0.0479
     79 H         -15.7919  -11.8219   -8.3564 H       1  UNK1        0.0479
     80 H         -16.8283   -8.1392   -7.2027 H       1  UNK1        0.0479
     81 H         -16.4689   -7.7110   -8.8925 H       1  UNK1        0.0479
     82 H         -12.5875  -10.4898   -4.7698 H       1  UNK1        0.0381
     83 H         -14.2726  -10.2548   -4.3240 H       1  UNK1        0.0381
     84 H         -11.9436   -8.4638   -3.4310 H       1  UNK1        0.0599
     85 HA        -16.7830   -9.8022    4.1268 H       4  LEU4        0.0594
     86 HB1       -17.9824  -11.2549    2.6942 H       4  LEU4        0.0290
     87 HB2       -16.7677  -12.1840    3.5545 H       4  LEU4        0.0290
     88 HA        -12.2452  -10.3807    3.5736 H       5  TRP5        0.0598
     89 HG        -16.4953  -11.2850    0.6329 H       4  LEU4        0.0296
     90 HB1       -11.9596   -7.3792    2.9288 H       5  TRP5        0.0337
     91 HB2       -10.6291   -8.4857    3.2007 H       5  TRP5        0.0337
     92 HA        -12.5383  -11.5313   -0.2548 H       6  ASP6        0.0598
     93 HA        -15.9755   -6.4537   -2.3114 H       2  ASP2        0.0598
     94 HD21      -14.8740  -13.3157    2.2513 H       4  LEU4        0.0232
     95 HD22      -14.2830  -11.7850    1.5842 H       4  LEU4        0.0232
     96 HD23      -14.7608  -13.0769    0.5005 H       4  LEU4        0.0232
     97 HD11      -17.3681  -13.9907    1.7474 H       4  LEU4        0.0232
     98 HD12      -17.1045  -13.5915    0.0405 H       4  LEU4        0.0232
     99 HD13      -18.4163  -12.8138    0.9326 H       4  LEU4        0.0232
    100 H         -18.3657   -7.2408    1.0123 H       3  UNK3        0.0651
    101 H         -18.6903   -8.1890   -8.8284 H       1  UNK1        0.0636
    102 H         -17.6460  -12.2464   -7.7754 H       1  UNK1        0.0636
    103 HB1        -9.4627  -11.6092   -0.2980 H       6  ASP6        0.0348
    104 HB2       -10.4732  -12.3860   -1.5286 H       6  ASP6        0.0348
    105 HD1       -10.8146   -9.8191    5.9178 H       5  TRP5        0.0810
    106 HB1       -18.4499   -7.4556   -2.3924 H       2  ASP2        0.0348
    107 HB2       -17.7218   -8.7784   -3.2976 H       2  ASP2        0.0348
    108 H         -21.0310   -8.7112   -8.4444 H       1  UNK1        0.0618
    109 H         -19.9863  -12.7448   -7.4385 H       1  UNK1        0.0618
    110 HE3       -12.9572   -5.4536    4.0946 H       5  TRP5        0.0624
    111 H         -21.7199  -10.9937   -7.7441 H       1  UNK1        0.0618
    112 HZ2       -12.4144   -6.2385    8.9971 H       5  TRP5        0.0638
    113 HZ3       -13.7152   -3.7542    5.7278 H       5  TRP5        0.0618
    114 H         -15.4267   -4.7372    1.8743 H       3  UNK3        0.0626
    115 HH2       -13.4495   -4.1343    8.1562 H       5  TRP5        0.0618
    116 H         -16.3552   -2.4374    2.8047 H       3  UNK3        0.0623
    117 H         -18.9760   -2.5220    3.0896 H       3  UNK3        0.0693
@<TRIPOS>BOND
     1     1    56   ar
     2     1    66   ar
     3     2    26    2
     4     3    35    2
     5     4    37    2
     6     5    39    2
     7     6    40    2
     8     7    48    2
     9     8    52    2
    10     9    60   ar
    11    10    60   ar
    12    11    64   ar
    13    12    64   ar
    14    13    22    1
    15    13    23    1
    16    14    24    1
    17    14    25    1
    18    14    32    1
    19    15    28    1
    20    15    40   am
    21    16    35   am
    22    16    31    1
    23    17    48   am
    24    17    29    1
    25    18    39   am
    26    18    36    1
    27    19    37   am
    28    19    41    1
    29    20    52   am
    30    20    44    1
    31    21    50   ar
    32    21    51   ar
    33    22    24    1
    34    23    25    1
    35    26    27    1
    36    26    13   am
    37    28    37    1
    38    28    27    1
    39    29    35    1
    40    29    30    1
    41    30    33    1
    42    31    39    1
    43    31    34    1
    44    32    45   ar
    45    32    46   ar
    46    33    43    1
    47    33    42    1
    48    34    38    1
    49    36    40    1
    50    36    49    1
    51    38    47   ar
    52    38    50   ar
    53    41    52    1
    54    41    53    1
    55    44    48    1
    56    44    56    1
    57    45    54   ar
    58    46    55   ar
    59    47    57   ar
    60    47    51   ar
    61    49    60    1
    62    51    59   ar
    63    53    64    1
    64    54    58   ar
    65    55    58   ar
    66    56    62   ar
    67    57    61   ar
    68    59    63   ar
    69    61    63   ar
    70    62    65   ar
    71    65    66   ar
    72    15    67    1
    73    16    68    1
    74    17    69    1
    75    18    70    1
    76    19    71    1
    77    20    72    1
    78    21    73    1
    79    22    74    1
    80    22    75    1
    81    23    76    1
    82    23    77    1
    83    24    78    1
    84    24    79    1
    85    25    80    1
    86    25    81    1
    87    27    82    1
    88    27    83    1
    89    28    84    1
    90    29    85    1
    91    30    86    1
    92    30    87    1
    93    31    88    1
    94    33    89    1
    95    34    90    1
    96    34    91    1
    97    36    92    1
    98    41    93    1
    99    42    94    1
   100    42    95    1
   101    42    96    1
   102    43    97    1
   103    43    98    1
   104    43    99    1
   105    44   100    1
   106    45   101    1
   107    46   102    1
   108    49   103    1
   109    49   104    1
   110    50   105    1
   111    53   106    1
   112    53   107    1
   113    54   108    1
   114    55   109    1
   115    57   110    1
   116    58   111    1
   117    59   112    1
   118    61   113    1
   119    62   114    1
   120    63   115    1
   121    65   116    1
   122    66   117    1
@<TRIPOS>MOLECULE
123882
 117 122 0 0 0
SMALL
GASTEIGER

@<TRIPOS>ATOM
      1 S         -18.6284   -4.9820    3.2768 S.2     3  UNK3       -0.0993
      2 O         -13.2025   -7.5623   -5.4591 O.2     1  UNK1       -0.2755
      3 O         -14.4091  -11.2441    4.4773 O.2     4  LEU4       -0.2738
      4 O         -13.8805   -7.1016   -1.6576 O.2     1  UNK1       -0.2737
      5 O         -13.6574   -9.6553    0.8588 O.2     5  TRP5       -0.2738
      6 O         -10.6965   -9.3339   -1.6486 O.2     6  ASP6       -0.2738
      7 O         -16.9815   -7.5018    3.9665 O.2     3  UNK3       -0.2734
      8 O         -17.5773   -8.9343   -0.3040 O.2     2  ASP2       -0.2737
      9 OD1       -10.4304  -12.8627    1.6781 O.co2   6  ASP6       -0.5497
     10 OD2       -10.7656  -14.3378   -0.0416 O.co2   6  ASP6       -0.5497
     11 OD1       -18.0352   -6.4910   -4.9288 O.co2   2  ASP2       -0.5497
     12 OD2       -16.8035   -8.4226   -4.8861 O.co2   2  ASP2       -0.5497
     13 N         -14.0332   -9.2586   -6.7543 N.am    1  UNK1       -0.2984
     14 N         -14.2981  -10.2512   -9.4750 N.pl3   1  UNK1       -0.3269
     15 N         -12.8608  -10.0031   -2.0438 N.am    1  UNK1       -0.3020
     16 N         -13.9730   -9.2530    3.4459 N.am    5  TRP5       -0.3022
     17 N         -16.4132   -9.0123    2.3766 N.am    4  LEU4       -0.3022
     18 N         -11.5296  -10.4856    1.0365 N.am    6  ASP6       -0.3021
     19 N         -15.5160   -8.4289   -2.5287 N.am    2  ASP2       -0.3021
     20 N         -16.6644   -6.9610    0.3281 N.am    3  UNK3       -0.2984
     21 NE1       -12.3245   -5.3479    1.3812 N.ar    5  TRP5       -0.3604
     22 C         -14.2476   -8.3341   -7.8703 C.3     1  UNK1        0.0304
     23 C         -14.5011  -10.6340   -6.9761 C.3     1  UNK1        0.0304
     24 C         -14.9497   -8.9820   -9.0772 C.3     1  UNK1        0.0280
     25 C         -14.0337  -11.1823   -8.3445 C.3     1  UNK1        0.0280
     26 C         -13.5996   -8.7274   -5.5474 C.2     1  UNK1        0.2179
     27 C         -13.5521   -9.6697   -4.3600 C.3     1  UNK1        0.0510
     28 C         -13.1485   -8.9762   -3.0551 C.3     1  UNK1        0.1076
     29 CA        -16.2571  -10.1522    3.3003 C.3     4  LEU4        0.0997
     30 CB        -16.7386  -11.4185    2.5651 C.3     4  LEU4       -0.0236
     31 CA        -12.5972   -9.5446    3.0551 C.3     5  TRP5        0.1034
     32 C         -13.3450  -10.2796  -10.5001 C.ar    1  UNK1        0.0298
     33 CG        -16.8322  -12.7267    3.3751 C.3     4  LEU4       -0.0446
     34 CB        -11.6450   -8.3826    3.3591 C.3     5  TRP5        0.0013
     35 C         -14.7994  -10.2988    3.7967 C.2     4  LEU4        0.2340
     36 CA        -11.6143  -11.1390   -0.2698 C.3     6  ASP6        0.1045
     37 C         -14.1986   -8.0350   -2.4017 C.2     1  UNK1        0.2344
     38 CG        -12.0686   -7.0582    2.7886 C.ar    5  TRP5       -0.0201
     39 C         -12.6589   -9.8860    1.5467 C.2     5  TRP5        0.2343
     40 C         -11.6489  -10.0650   -1.3819 C.2     6  ASP6        0.2343
     41 CA        -16.5890   -7.5503   -2.0760 C.3     2  ASP2        0.1045
     42 CD2       -17.6566  -12.5800    4.6525 C.3     4  LEU4       -0.0626
     43 CD1       -17.4323  -13.8293    2.4947 C.3     4  LEU4       -0.0626
     44 C         -17.3895   -6.8787    1.5974 C.3     3  UNK3        0.1311
     45 C         -12.9484  -11.5086  -11.0585 C.ar    1  UNK1       -0.0407
     46 C         -12.7450   -9.1283  -11.0308 C.ar    1  UNK1       -0.0407
     47 CD2       -12.9308   -6.0848    3.3953 C.ar    5  TRP5        0.0029
     48 C         -16.8489   -7.7622    2.7697 C.2     3  UNK3        0.2390
     49 CB        -10.4265  -12.0586   -0.5248 C.3     6  ASP6        0.0138
     50 CD1       -11.7117   -6.5583    1.5530 C.ar    5  TRP5        0.0060
     51 CE2       -13.0547   -5.0202    2.5004 C.ar    5  TRP5        0.0467
     52 C         -16.9879   -7.9002   -0.6222 C.2     2  ASP2        0.2345
     53 CB        -17.8548   -7.7068   -2.9204 C.3     2  ASP2        0.0138
     54 C         -11.9877  -11.5886  -12.0741 C.ar    1  UNK1       -0.0600
     55 C         -11.7793   -9.1986  -12.0442 C.ar    1  UNK1       -0.0600
     56 C         -17.5849   -5.4140    1.9692 C.ar    3  UNK3        0.0189
     57 CE3       -13.6376   -6.0219    4.6139 C.ar    5  TRP5       -0.0523
     58 C         -11.3978  -10.4297  -12.5646 C.ar    1  UNK1       -0.0616
     59 CZ2       -13.8256   -3.8861    2.7775 C.ar    5  TRP5       -0.0378
     60 CG        -10.5534  -13.2024    0.4631 C.2     6  ASP6        0.0440
     61 CZ3       -14.4287   -4.9039    4.8983 C.ar    5  TRP5       -0.0611
     62 C         -17.1426   -4.2697    1.3197 C.ar    3  UNK3       -0.0493
     63 CH2       -14.5129   -3.8474    3.9964 C.ar    5  TRP5       -0.0598
     64 CG        -17.5310   -7.5104   -4.3881 C.2     2  ASP2        0.0440
     65 C         -17.6023   -3.0649    1.9273 C.ar    3  UNK3       -0.0544
     66 C         -18.3931   -3.3124    3.0235 C.ar    3  UNK3       -0.0240
     67 H         -13.6592  -10.3339   -1.5081 H       1  UNK1        0.1495
     68 H         -14.4230   -8.5862    2.8262 H       5  TRP5        0.1495
     69 H         -16.3199   -9.1974    1.3763 H       4  LEU4        0.1495
     70 H         -11.0084  -11.0625    1.7077 H       6  ASP6        0.1495
     71 H         -15.7535   -8.8754   -3.4185 H       2  ASP2        0.1495
     72 H         -15.7937   -6.4518    0.2001 H       3  UNK3        0.1498
     73 HE1       -12.2689   -4.7925    0.5387 H       5  TRP5        0.1653
     74 H         -13.2638   -7.9511   -8.1619 H       1  UNK1        0.0480
     75 H         -14.8407   -7.4844   -7.5126 H       1  UNK1        0.0480
     76 H         -15.5968  -10.6171   -6.9234 H       1  UNK1        0.0480
     77 H         -14.1498  -11.3055   -6.1892 H       1  UNK1        0.0480
     78 H         -15.9859   -9.2205   -8.8014 H       1  UNK1        0.0479
     79 H         -15.0369   -8.2769   -9.9115 H       1  UNK1        0.0479
     80 H         -12.9552  -11.3766   -8.2634 H       1  UNK1        0.0479
     81 H         -14.5326  -12.1388   -8.5402 H       1  UNK1        0.0479
     82 H         -12.7952  -10.4298   -4.5960 H       1  UNK1        0.0381
     83 H         -14.5086  -10.1918   -4.2576 H       1  UNK1        0.0381
     84 H         -12.2496   -8.3735   -3.2306 H       1  UNK1        0.0599
     85 HA        -16.8776   -9.9558    4.1809 H       4  LEU4        0.0594
     86 HB1       -16.0788  -11.5964    1.7038 H       4  LEU4        0.0290
     87 HB2       -17.7302  -11.2067    2.1400 H       4  LEU4        0.0290
     88 HA        -12.2529  -10.4414    3.5838 H       5  TRP5        0.0598
     89 HG        -15.8244  -13.0558    3.6504 H       4  LEU4        0.0296
     90 HB1       -10.6377   -8.6203    2.9953 H       5  TRP5        0.0337
     91 HB2       -11.5575   -8.2744    4.4484 H       5  TRP5        0.0337
     92 HA        -12.5455  -11.7211   -0.2916 H       6  ASP6        0.0598
     93 HA        -16.2455   -6.5089   -2.1252 H       2  ASP2        0.0598
     94 HD21      -18.6566  -12.1902    4.4375 H       4  LEU4        0.0232
     95 HD22      -17.1699  -11.9060    5.3638 H       4  LEU4        0.0232
     96 HD23      -17.7709  -13.5481    5.1528 H       4  LEU4        0.0232
     97 HD11      -18.4588  -13.5875    2.1982 H       4  LEU4        0.0232
     98 HD12      -17.4507  -14.7862    3.0269 H       4  LEU4        0.0232
     99 HD13      -16.8395  -13.9665    1.5838 H       4  LEU4        0.0232
    100 H         -18.3957   -7.2804    1.4006 H       3  UNK3        0.0651
    101 H         -13.4051  -12.4311  -10.7093 H       1  UNK1        0.0636
    102 H         -12.9870   -8.1432  -10.6432 H       1  UNK1        0.0636
    103 HB1        -9.4708  -11.5462   -0.3731 H       6  ASP6        0.0348
    104 HB2       -10.4444  -12.4364   -1.5546 H       6  ASP6        0.0348
    105 HD1       -11.1046   -6.9828    0.7616 H       5  TRP5        0.0810
    106 HB1       -18.6160   -6.9884   -2.5920 H       2  ASP2        0.0348
    107 HB2       -18.2915   -8.7066   -2.8042 H       2  ASP2        0.0348
    108 H         -11.7053  -12.5570  -12.4750 H       1  UNK1        0.0618
    109 H         -11.3223   -8.2845  -12.4133 H       1  UNK1        0.0618
    110 HE3       -13.5957   -6.8497    5.3156 H       5  TRP5        0.0624
    111 H         -10.6449  -10.4844  -13.3453 H       1  UNK1        0.0618
    112 HZ2       -13.9122   -3.0710    2.0670 H       5  TRP5        0.0638
    113 HZ3       -14.9982   -4.8756    5.8235 H       5  TRP5        0.0618
    114 H         -16.5234   -4.2877    0.4310 H       3  UNK3        0.0626
    115 HH2       -15.1435   -2.9942    4.2290 H       5  TRP5        0.0618
    116 H         -17.3658   -2.0706    1.5722 H       3  UNK3        0.0623
    117 H         -18.8681   -2.5940    3.6764 H       3  UNK3        0.0693
@<TRIPOS>BOND
     1     1    56   ar
     2     1    66   ar
     3     2    26    2
     4     3    35    2
     5     4    37    2
     6     5    39    2
     7     6    40    2
     8     7    48    2
     9     8    52    2
    10     9    60   ar
    11    10    60   ar
    12    11    64   ar
    13    12    64   ar
    14    13    22    1
    15    13    23    1
    16    14    24    1
    17    14    25    1
    18    14    32    1
    19    15    28    1
    20    15    40   am
    21    16    35   am
    22    16    31    1
    23    17    48   am
    24    17    29    1
    25    18    39   am
    26    18    36    1
    27    19    37   am
    28    19    41    1
    29    20    52   am
    30    20    44    1
    31    21    50   ar
    32    21    51   ar
    33    22    24    1
    34    23    25    1
    35    26    27    1
    36    26    13   am
    37    28    37    1
    38    28    27    1
    39    29    35    1
    40    29    30    1
    41    30    33    1
    42    31    39    1
    43    31    34    1
    44    32    45   ar
    45    32    46   ar
    46    33    43    1
    47    33    42    1
    48    34    38    1
    49    36    40    1
    50    36    49    1
    51    38    47   ar
    52    38    50   ar
    53    41    52    1
    54    41    53    1
    55    44    48    1
    56    44    56    1
    57    45    54   ar
    58    46    55   ar
    59    47    57   ar
    60    47    51   ar
    61    49    60    1
    62    51    59   ar
    63    53    64    1
    64    54    58   ar
    65    55    58   ar
    66    56    62   ar
    67    57    61   ar
    68    59    63   ar
    69    61    63   ar
    70    62    65   ar
    71    65    66   ar
    72    15    67    1
    73    16    68    1
    74    17    69    1
    75    18    70    1
    76    19    71    1
    77    20    72    1
    78    21    73    1
    79    22    74    1
    80    22    75    1
    81    23    76    1
    82    23    77    1
    83    24    78    1
    84    24    79    1
    85    25    80    1
    86    25    81    1
    87    27    82    1
    88    27    83    1
    89    28    84    1
    90    29    85    1
    91    30    86    1
    92    30    87    1
    93    31    88    1
    94    33    89    1
    95    34    90    1
    96    34    91    1
    97    36    92    1
    98    41    93    1
    99    42    94    1
   100    42    95    1
   101    42    96    1
   102    43    97    1
   103    43    98    1
   104    43    99    1
   105    44   100    1
   106    45   101    1
   107    46   102    1
   108    49   103    1
   109    49   104    1
   110    50   105    1
   111    53   106    1
   112    53   107    1
   113    54   108    1
   114    55   109    1
   115    57   110    1
   116    58   111    1
   117    59   112    1
   118    61   113    1
   119    62   114    1
   120    63   115    1
   121    65   116    1
   122    66   117    1
@<TRIPOS>MOLECULE
123882
 117 122 0 0 0
SMALL
GASTEIGER

@<TRIPOS>ATOM
      1 S         -17.7237   -4.9937    3.7183 S.2     3  UNK3       -0.0993
      2 O         -11.7959  -11.5454   -4.5257 O.2     1  UNK1       -0.2755
      3 O         -14.2276  -11.5064    4.0377 O.2     4  LEU4       -0.2738
      4 O         -13.4875   -6.8801   -2.9441 O.2     1  UNK1       -0.2737
      5 O         -13.2731   -8.8462    1.0025 O.2     5  TRP5       -0.2738
      6 O         -11.0336   -9.0689   -1.3570 O.2     6  ASP6       -0.2738
      7 O         -16.3041   -7.4732    3.8733 O.2     3  UNK3       -0.2734
      8 O         -16.2767   -9.0189   -0.1403 O.2     2  ASP2       -0.2737
      9 OD1       -10.9012  -12.9187    1.6891 O.co2   6  ASP6       -0.5497
     10 OD2       -10.5413  -14.3790   -0.0271 O.co2   6  ASP6       -0.5497
     11 OD1       -19.1215   -9.0766   -1.7978 O.co2   2  ASP2       -0.5497
     12 OD2       -17.4415   -9.8987   -3.1291 O.co2   2  ASP2       -0.5497
     13 N         -12.6892  -11.1440   -6.5771 N.am    1  UNK1       -0.2984
     14 N         -11.8461  -10.7326   -9.3172 N.pl3   1  UNK1       -0.3269
     15 N         -12.8635  -10.1499   -2.2252 N.am    1  UNK1       -0.3020
     16 N         -13.9177   -9.3084    3.5491 N.am    5  TRP5       -0.3022
     17 N         -16.4325   -9.1189    2.3597 N.am    4  LEU4       -0.3022
     18 N         -11.6072  -10.4324    1.1534 N.am    6  ASP6       -0.3021
     19 N         -15.1771   -8.3856   -2.6490 N.am    2  ASP2       -0.3021
     20 N         -16.3762   -6.7864    0.3429 N.am    3  UNK3       -0.2984
     21 NE1        -8.1301   -8.8321    3.3894 N.ar    5  TRP5       -0.3604
     22 C         -13.5273  -10.3700   -7.4969 C.3     1  UNK1        0.0304
     23 C         -11.7746  -12.1042   -7.2034 C.3     1  UNK1        0.0304
     24 C         -13.2868  -10.7207   -8.9760 C.3     1  UNK1        0.0280
     25 C         -10.9719  -11.4410   -8.3378 C.3     1  UNK1        0.0280
     26 C         -12.5936  -10.9097   -5.2130 C.2     1  UNK1        0.2179
     27 C         -13.5580   -9.9062   -4.6000 C.3     1  UNK1        0.0510
     28 C         -12.9818   -9.2368   -3.3493 C.3     1  UNK1        0.1076
     29 CA        -16.1883  -10.2593    3.2557 C.3     4  LEU4        0.0997
     30 CB        -16.7930  -11.4935    2.5466 C.3     4  LEU4       -0.0236
     31 CA        -12.4914   -9.4182    3.2166 C.3     5  TRP5        0.1034
     32 C         -11.2490   -9.5936   -9.8723 C.ar    1  UNK1        0.0298
     33 CG        -16.8295  -12.8310    3.3042 C.3     4  LEU4       -0.0446
     34 CB        -11.7415   -8.1708    3.6764 C.3     5  TRP5        0.0013
     35 C         -14.6862  -10.4581    3.6024 C.2     4  LEU4        0.2340
     36 CA        -11.8906  -11.0255   -0.1470 C.3     6  ASP6        0.1045
     37 C         -13.8770   -8.0481   -2.9331 C.2     1  UNK1        0.2344
     38 CG        -10.2658   -8.1977    3.4167 C.ar    5  TRP5       -0.0201
     39 C         -12.4929   -9.5225    1.6830 C.2     5  TRP5        0.2343
     40 C         -11.8773   -9.9615   -1.2684 C.2     6  ASP6        0.2343
     41 CA        -16.1288   -7.4906   -2.0158 C.3     2  ASP2        0.1045
     42 CD2       -17.5912  -12.7388    4.6244 C.3     4  LEU4       -0.0626
     43 CD1       -17.4590  -13.9070    2.4096 C.3     4  LEU4       -0.0626
     44 C         -17.1538   -6.8565    1.5966 C.3     3  UNK3        0.1311
     45 C         -10.0370   -9.7212  -10.5722 C.ar    1  UNK1       -0.0407
     46 C         -11.7926   -8.3053   -9.7703 C.ar    1  UNK1       -0.0407
     47 CD2        -9.5149   -7.2634    2.6299 C.ar    5  TRP5        0.0029
     48 C         -16.5610   -7.7991    2.7165 C.2     3  UNK3        0.2390
     49 CB        -10.8725  -12.0983   -0.5258 C.3     6  ASP6        0.0138
     50 CD1        -9.3689   -9.1397    3.8801 C.ar    5  TRP5        0.0060
     51 CE2        -8.1799   -7.6675    2.6595 C.ar    5  TRP5        0.0467
     52 C         -16.2384   -7.8559   -0.5213 C.2     2  ASP2        0.2345
     53 CB        -17.5107   -7.5883   -2.6491 C.3     2  ASP2        0.0138
     54 C          -9.3970   -8.6165  -11.1448 C.ar    1  UNK1       -0.0600
     55 C         -11.1503   -7.1934  -10.3298 C.ar    1  UNK1       -0.0600
     56 C         -17.4337   -5.4070    2.0642 C.ar    3  UNK3        0.0189
     57 CE3        -9.8496   -6.1169    1.8795 C.ar    5  TRP5       -0.0523
     58 C          -9.9541   -7.3493  -11.0211 C.ar    1  UNK1       -0.0616
     59 CZ2        -7.1596   -6.9691    2.0006 C.ar    5  TRP5       -0.0378
     60 CG        -10.7800  -13.2435    0.4705 C.2     6  ASP6        0.0440
     61 CZ3        -8.8447   -5.4099    1.2095 C.ar    5  TRP5       -0.0611
     62 C         -17.6243   -4.2702    1.2818 C.ar    3  UNK3       -0.0493
     63 CH2        -7.5186   -5.8277    1.2770 C.ar    5  TRP5       -0.0598
     64 CG        -18.0754   -9.0043   -2.4983 C.2     2  ASP2        0.0440
     65 C         -17.8222   -3.0774    2.0420 C.ar    3  UNK3       -0.0544
     66 C         -17.8492   -3.3330    3.3912 C.ar    3  UNK3       -0.0240
     67 H         -13.6168  -10.7902   -2.0154 H       1  UNK1        0.1495
     68 H         -14.3804   -8.5412    3.0789 H       5  TRP5        0.1495
     69 H         -16.3620   -9.3132    1.3575 H       4  LEU4        0.1495
     70 H         -11.2575  -11.1461    1.8053 H       6  ASP6        0.1495
     71 H         -15.4829   -9.3611   -2.6596 H       2  ASP2        0.1495
     72 H         -16.2243   -5.8778   -0.0637 H       3  UNK3        0.1498
     73 HE1        -7.3025   -9.3938    3.5188 H       5  TRP5        0.1653
     74 H         -13.3061   -9.3104   -7.3354 H       1  UNK1        0.0480
     75 H         -14.5769  -10.5420   -7.2300 H       1  UNK1        0.0480
     76 H         -12.3875  -12.9242   -7.5962 H       1  UNK1        0.0480
     77 H         -11.0846  -12.5427   -6.4766 H       1  UNK1        0.0480
     78 H         -13.6749  -11.7286   -9.1694 H       1  UNK1        0.0479
     79 H         -13.8611  -10.0608   -9.6349 H       1  UNK1        0.0479
     80 H         -10.2648  -10.7368   -7.8757 H       1  UNK1        0.0479
     81 H         -10.3888  -12.2076   -8.8629 H       1  UNK1        0.0479
     82 H         -14.4889  -10.4449   -4.3787 H       1  UNK1        0.0381
     83 H         -13.8010   -9.1163   -5.3167 H       1  UNK1        0.0381
     84 H         -11.9901   -8.8279   -3.5830 H       1  UNK1        0.0599
     85 HA        -16.7082  -10.0495    4.1951 H       4  LEU4        0.0594
     86 HB1       -16.2529  -11.6487    1.6047 H       4  LEU4        0.0290
     87 HB2       -17.8257  -11.2416    2.2548 H       4  LEU4        0.0290
     88 HA        -12.0816  -10.3351    3.6659 H       5  TRP5        0.0598
     89 HG        -15.8087  -13.1630    3.5163 H       4  LEU4        0.0296
     90 HB1       -11.8922   -8.0364    4.7567 H       5  TRP5        0.0337
     91 HB2       -12.1824   -7.2828    3.2065 H       5  TRP5        0.0337
     92 HA        -12.8934  -11.4674   -0.0778 H       6  ASP6        0.0598
     93 HA        -15.7652   -6.4618   -2.1111 H       2  ASP2        0.0598
     94 HD21      -18.6321  -12.4450    4.4615 H       4  LEU4        0.0232
     95 HD22      -17.1305  -12.0154    5.3005 H       4  LEU4        0.0232
     96 HD23      -17.5900  -13.7089    5.1344 H       4  LEU4        0.0232
     97 HD11      -18.4999  -13.6695    2.1705 H       4  LEU4        0.0232
     98 HD12      -17.4360  -14.8832    2.9020 H       4  LEU4        0.0232
     99 HD13      -16.9068  -13.9982    1.4668 H       4  LEU4        0.0232
    100 H         -18.1287   -7.2909    1.3266 H       3  UNK3        0.0651
    101 H          -9.5875  -10.7040  -10.6911 H       1  UNK1        0.0636
    102 H         -12.7107   -8.1250   -9.2229 H       1  UNK1        0.0636
    103 HB1        -9.8692  -11.6591   -0.6050 H       6  ASP6        0.0348
    104 HB2       -11.1178  -12.5037   -1.5179 H       6  ASP6        0.0348
    105 HD1        -9.5190  -10.0318    4.4751 H       5  TRP5        0.0810
    106 HB1       -17.4713   -7.3516   -3.7209 H       2  ASP2        0.0348
    107 HB2       -18.1969   -6.8754   -2.1782 H       2  ASP2        0.0348
    108 H          -8.4636   -8.7530  -11.6836 H       1  UNK1        0.0618
    109 H         -11.5885   -6.2049  -10.2109 H       1  UNK1        0.0618
    110 HE3       -10.8848   -5.8013    1.7933 H       5  TRP5        0.0624
    111 H          -9.4590   -6.4872  -11.4547 H       1  UNK1        0.0618
    112 HZ2        -6.1328   -7.3122    2.0267 H       5  TRP5        0.0638
    113 HZ3        -9.1134   -4.5427    0.6121 H       5  TRP5        0.0618
    114 H         -17.6016   -4.2754    0.2015 H       3  UNK3        0.0626
    115 HH2        -6.7546   -5.2746    0.7367 H       5  TRP5        0.0618
    116 H         -17.9412   -2.0884    1.6183 H       3  UNK3        0.0623
    117 H         -17.9746   -2.6252    4.2027 H       3  UNK3        0.0693
@<TRIPOS>BOND
     1     1    56   ar
     2     1    66   ar
     3     2    26    2
     4     3    35    2
     5     4    37    2
     6     5    39    2
     7     6    40    2
     8     7    48    2
     9     8    52    2
    10     9    60   ar
    11    10    60   ar
    12    11    64   ar
    13    12    64   ar
    14    13    22    1
    15    13    23    1
    16    14    24    1
    17    14    25    1
    18    14    32    1
    19    15    28    1
    20    15    40   am
    21    16    35   am
    22    16    31    1
    23    17    48   am
    24    17    29    1
    25    18    39   am
    26    18    36    1
    27    19    37   am
    28    19    41    1
    29    20    52   am
    30    20    44    1
    31    21    50   ar
    32    21    51   ar
    33    22    24    1
    34    23    25    1
    35    26    27    1
    36    26    13   am
    37    28    37    1
    38    28    27    1
    39    29    35    1
    40    29    30    1
    41    30    33    1
    42    31    39    1
    43    31    34    1
    44    32    45   ar
    45    32    46   ar
    46    33    43    1
    47    33    42    1
    48    34    38    1
    49    36    40    1
    50    36    49    1
    51    38    47   ar
    52    38    50   ar
    53    41    52    1
    54    41    53    1
    55    44    48    1
    56    44    56    1
    57    45    54   ar
    58    46    55   ar
    59    47    57   ar
    60    47    51   ar
    61    49    60    1
    62    51    59   ar
    63    53    64    1
    64    54    58   ar
    65    55    58   ar
    66    56    62   ar
    67    57    61   ar
    68    59    63   ar
    69    61    63   ar
    70    62    65   ar
    71    65    66   ar
    72    15    67    1
    73    16    68    1
    74    17    69    1
    75    18    70    1
    76    19    71    1
    77    20    72    1
    78    21    73    1
    79    22    74    1
    80    22    75    1
    81    23    76    1
    82    23    77    1
    83    24    78    1
    84    24    79    1
    85    25    80    1
    86    25    81    1
    87    27    82    1
    88    27    83    1
    89    28    84    1
    90    29    85    1
    91    30    86    1
    92    30    87    1
    93    31    88    1
    94    33    89    1
    95    34    90    1
    96    34    91    1
    97    36    92    1
    98    41    93    1
    99    42    94    1
   100    42    95    1
   101    42    96    1
   102    43    97    1
   103    43    98    1
   104    43    99    1
   105    44   100    1
   106    45   101    1
   107    46   102    1
   108    49   103    1
   109    49   104    1
   110    50   105    1
   111    53   106    1
   112    53   107    1
   113    54   108    1
   114    55   109    1
   115    57   110    1
   116    58   111    1
   117    59   112    1
   118    61   113    1
   119    62   114    1
   120    63   115    1
   121    65   116    1
   122    66   117    1
@<TRIPOS>MOLECULE
123882
 117 122 0 0 0
SMALL
GASTEIGER

@<TRIPOS>ATOM
      1 S         -18.8661   -4.5480    1.5830 S.2     3  UNK3       -0.0993
      2 O         -12.7943   -7.7686   -5.7563 O.2     1  UNK1       -0.2755
      3 O         -14.4077  -11.2575    4.3359 O.2     4  LEU4       -0.2738
      4 O         -13.5177   -6.8912   -2.2128 O.2     1  UNK1       -0.2737
      5 O         -13.4144   -9.2485    0.8125 O.2     5  TRP5       -0.2738
      6 O         -10.5543   -9.2834   -1.5965 O.2     6  ASP6       -0.2738
      7 O         -17.5759   -7.6689    3.6536 O.2     3  UNK3       -0.2734
      8 O         -16.8668   -9.0481   -0.4557 O.2     2  ASP2       -0.2737
      9 OD1       -11.1133  -14.2863   -0.0496 O.co2   6  ASP6       -0.5497
     10 OD2       -10.6121  -12.9037    1.7073 O.co2   6  ASP6       -0.5497
     11 OD1       -16.6116   -6.8677   -5.0027 O.co2   2  ASP2       -0.5497
     12 OD2       -18.7680   -6.3364   -4.4981 O.co2   2  ASP2       -0.5497
     13 N         -14.2953   -9.2122   -6.7096 N.am    1  UNK1       -0.2984
     14 N         -16.5701   -9.8000   -8.5051 N.pl3   1  UNK1       -0.3269
     15 N         -12.6748   -9.9916   -2.1548 N.am    1  UNK1       -0.3020
     16 N         -13.9846   -9.2200    3.3580 N.am    5  TRP5       -0.3022
     17 N         -16.4417   -9.0469    2.2460 N.am    4  LEU4       -0.3022
     18 N         -11.4494  -10.3979    1.0772 N.am    6  ASP6       -0.3021
     19 N         -15.1990   -8.3599   -2.7016 N.am    2  ASP2       -0.3021
     20 N         -16.4903   -6.8941    0.1732 N.am    3  UNK3       -0.2984
     21 NE1       -11.5406   -8.2389    7.1650 N.ar    5  TRP5       -0.3604
     22 C         -14.8944  -10.5465   -6.8316 C.3     1  UNK1        0.0304
     23 C         -14.7469   -8.2196   -7.6909 C.3     1  UNK1        0.0304
     24 C         -15.4949  -10.7749   -8.2306 C.3     1  UNK1        0.0280
     25 C         -16.2346   -8.3997   -8.0626 C.3     1  UNK1        0.0280
     26 C         -13.4585   -8.8002   -5.6839 C.2     1  UNK1        0.2179
     27 C         -13.3329   -9.7402   -4.4998 C.3     1  UNK1        0.0510
     28 C         -12.8710   -9.0136   -3.2335 C.3     1  UNK1        0.1076
     29 CA        -16.2591  -10.1196    3.2332 C.3     4  LEU4        0.0997
     30 CB        -16.9092  -11.4435    2.7792 C.3     4  LEU4       -0.0236
     31 CA        -12.5648   -9.4647    3.0815 C.3     5  TRP5        0.1034
     32 C         -17.9218  -10.1493   -8.3204 C.ar    1  UNK1        0.0298
     33 CG        -16.4536  -12.0426    1.4275 C.3     4  LEU4       -0.0446
     34 CB        -11.6773   -8.2819    3.4786 C.3     5  TRP5        0.0013
     35 C         -14.7946  -10.2900    3.6821 C.2     4  LEU4        0.2340
     36 CA        -11.5783  -11.0407   -0.2337 C.3     6  ASP6        0.1045
     37 C         -13.8777   -7.9584   -2.7109 C.2     1  UNK1        0.2344
     38 CG        -11.7160   -7.9895    4.9564 C.ar    5  TRP5       -0.0201
     39 C         -12.5225   -9.6812    1.5524 C.2     5  TRP5        0.2343
     40 C         -11.5268  -10.0009   -1.3782 C.2     6  ASP6        0.2343
     41 CA        -16.2600   -7.4825   -2.2256 C.3     2  ASP2        0.1045
     42 CD2       -15.0267  -12.5877    1.4458 C.3     4  LEU4       -0.0626
     43 CD1       -17.4066  -13.1725    1.0187 C.3     4  LEU4       -0.0626
     44 C         -17.3917   -6.9143    1.3227 C.3     3  UNK3        0.1311
     45 C         -18.9420   -9.1984   -8.5238 C.ar    1  UNK1       -0.0407
     46 C         -18.3521  -11.4350   -7.9526 C.ar    1  UNK1       -0.0407
     47 CD2       -12.2297   -6.8133    5.5984 C.ar    5  TRP5        0.0029
     48 C         -17.1079   -7.8746    2.5294 C.2     3  UNK3        0.2390
     49 CB        -10.4741  -12.0626   -0.4772 C.3     6  ASP6        0.0138
     50 CD1       -11.2829   -8.8313    5.9623 C.ar    5  TRP5        0.0060
     51 CE2       -12.1091   -7.0006    6.9764 C.ar    5  TRP5        0.0467
     52 C         -16.5531   -7.8976   -0.7673 C.2     2  ASP2        0.2345
     53 CB        -17.5659   -7.6715   -2.9918 C.3     2  ASP2        0.0138
     54 C         -20.2963   -9.4913   -8.3201 C.ar    1  UNK1       -0.0600
     55 C         -19.7074  -11.7406   -7.7538 C.ar    1  UNK1       -0.0600
     56 C         -17.4552   -5.4917    1.8444 C.ar    3  UNK3        0.0189
     57 CE3       -12.8025   -5.6102    5.1362 C.ar    5  TRP5       -0.0523
     58 C         -20.6801  -10.7656   -7.9294 C.ar    1  UNK1       -0.0616
     59 CZ2       -12.5338   -6.0491    7.9139 C.ar    5  TRP5       -0.0378
     60 CG        -10.7565  -13.2015    0.4838 C.2     6  ASP6        0.0440
     61 CZ3       -13.2299   -4.6470    6.0586 C.ar    5  TRP5       -0.0611
     62 C         -16.4918   -4.7714    2.5303 C.ar    3  UNK3       -0.0493
     63 CH2       -13.0973   -4.8660    7.4281 C.ar    5  TRP5       -0.0598
     64 CG        -17.6439   -6.8750   -4.2826 C.2     2  ASP2        0.0440
     65 C         -16.9244   -3.4529    2.8536 C.ar    3  UNK3       -0.0544
     66 C         -18.1974   -3.2017    2.3951 C.ar    3  UNK3       -0.0240
     67 H         -13.5109  -10.3003   -1.6699 H       1  UNK1        0.1495
     68 H         -14.4214   -8.5746    2.7093 H       5  TRP5        0.1495
     69 H         -16.1632   -9.2164    1.2764 H       4  LEU4        0.1495
     70 H         -11.0226  -11.0381    1.7578 H       6  ASP6        0.1495
     71 H         -15.4529   -9.3179   -2.8836 H       2  ASP2        0.1495
     72 H         -16.2483   -5.9802   -0.1926 H       3  UNK3        0.1498
     73 HE1       -11.3609   -8.6556    8.0671 H       5  TRP5        0.1653
     74 H         -15.6742  -10.6342   -6.0668 H       1  UNK1        0.0480
     75 H         -14.1226  -11.2946   -6.6247 H       1  UNK1        0.0480
     76 H         -14.1199   -8.3470   -8.5823 H       1  UNK1        0.0480
     77 H         -14.5799   -7.2035   -7.3176 H       1  UNK1        0.0480
     78 H         -14.7118  -10.6246   -8.9859 H       1  UNK1        0.0479
     79 H         -15.7992  -11.8161   -8.3616 H       1  UNK1        0.0479
     80 H         -16.8315   -8.1421   -7.1818 H       1  UNK1        0.0479
     81 H         -16.4786   -7.7006   -8.8701 H       1  UNK1        0.0479
     82 H         -12.5978  -10.5084   -4.7723 H       1  UNK1        0.0381
     83 H         -14.2792  -10.2578   -4.3199 H       1  UNK1        0.0381
     84 H         -11.9285   -8.4914   -3.4345 H       1  UNK1        0.0599
     85 HA        -16.7783   -9.8201    4.1514 H       4  LEU4        0.0594
     86 HB1       -17.9910  -11.2605    2.7160 H       4  LEU4        0.0290
     87 HB2       -16.7748  -12.1993    3.5635 H       4  LEU4        0.0290
     88 HA        -12.2442  -10.3862    3.5770 H       5  TRP5        0.0598
     89 HG        -16.5144  -11.2783    0.6489 H       4  LEU4        0.0296
     90 HB1       -11.9734   -7.3870    2.9166 H       5  TRP5        0.0337
     91 HB2       -10.6375   -8.4865    3.1927 H       5  TRP5        0.0337
     92 HA        -12.5547  -11.5434   -0.2500 H       6  ASP6        0.0598
     93 HA        -15.9282   -6.4394   -2.2635 H       2  ASP2        0.0598
     94 HD21      -14.8893  -13.3260    2.2423 H       4  LEU4        0.0232
     95 HD22      -14.2984  -11.7903    1.5875 H       4  LEU4        0.0232
     96 HD23      -14.7825  -13.0707    0.4934 H       4  LEU4        0.0232
     97 HD11      -17.3853  -13.9924    1.7450 H       4  LEU4        0.0232
     98 HD12      -17.1293  -13.5794    0.0402 H       4  LEU4        0.0232
     99 HD13      -18.4361  -12.8076    0.9448 H       4  LEU4        0.0232
    100 H         -18.3757   -7.2247    0.9447 H       3  UNK3        0.0651
    101 H         -18.6960   -8.1833   -8.8250 H       1  UNK1        0.0636
    102 H         -17.6512  -12.2399   -7.7702 H       1  UNK1        0.0636
    103 HB1        -9.4794  -11.6471   -0.2807 H       6  ASP6        0.0348
    104 HB2       -10.4909  -12.4211   -1.5121 H       6  ASP6        0.0348
    105 HD1       -10.8485   -9.8227    5.9174 H       5  TRP5        0.0810
    106 HB1       -18.4077   -7.3546   -2.3605 H       2  ASP2        0.0348
    107 HB2       -17.7372   -8.7282   -3.2318 H       2  ASP2        0.0348
    108 H         -21.0375   -8.7073   -8.4466 H       1  UNK1        0.0618
    109 H         -19.9920  -12.7405   -7.4391 H       1  UNK1        0.0618
    110 HE3       -12.9177   -5.4318    4.0721 H       5  TRP5        0.0624
    111 H         -21.7260  -10.9906   -7.7488 H       1  UNK1        0.0618
    112 HZ2       -12.4404   -6.2247    8.9800 H       5  TRP5        0.0638
    113 HZ3       -13.6762   -3.7238    5.6986 H       5  TRP5        0.0618
    114 H         -15.5248   -5.1807    2.7992 H       3  UNK3        0.0626
    115 HH2       -13.4433   -4.1110    8.1282 H       5  TRP5        0.0618
    116 H         -16.3308   -2.7278    3.3954 H       3  UNK3        0.0623
    117 H         -18.7716   -2.2916    2.4957 H       3  UNK3        0.0693
@<TRIPOS>BOND
     1     1    56   ar
     2     1    66   ar
     3     2    26    2
     4     3    35    2
     5     4    37    2
     6     5    39    2
     7     6    40    2
     8     7    48    2
     9     8    52    2
    10     9    60   ar
    11    10    60   ar
    12    11    64   ar
    13    12    64   ar
    14    13    22    1
    15    13    23    1
    16    14    24    1
    17    14    25    1
    18    14    32    1
    19    15    28    1
    20    15    40   am
    21    16    35   am
    22    16    31    1
    23    17    48   am
    24    17    29    1
    25    18    39   am
    26    18    36    1
    27    19    37   am
    28    19    41    1
    29    20    52   am
    30    20    44    1
    31    21    50   ar
    32    21    51   ar
    33    22    24    1
    34    23    25    1
    35    26    27    1
    36    26    13   am
    37    28    37    1
    38    28    27    1
    39    29    35    1
    40    29    30    1
    41    30    33    1
    42    31    39    1
    43    31    34    1
    44    32    45   ar
    45    32    46   ar
    46    33    43    1
    47    33    42    1
    48    34    38    1
    49    36    40    1
    50    36    49    1
    51    38    47   ar
    52    38    50   ar
    53    41    52    1
    54    41    53    1
    55    44    48    1
    56    44    56    1
    57    45    54   ar
    58    46    55   ar
    59    47    57   ar
    60    47    51   ar
    61    49    60    1
    62    51    59   ar
    63    53    64    1
    64    54    58   ar
    65    55    58   ar
    66    56    62   ar
    67    57    61   ar
    68    59    63   ar
    69    61    63   ar
    70    62    65   ar
    71    65    66   ar
    72    15    67    1
    73    16    68    1
    74    17    69    1
    75    18    70    1
    76    19    71    1
    77    20    72    1
    78    21    73    1
    79    22    74    1
    80    22    75    1
    81    23    76    1
    82    23    77    1
    83    24    78    1
    84    24    79    1
    85    25    80    1
    86    25    81    1
    87    27    82    1
    88    27    83    1
    89    28    84    1
    90    29    85    1
    91    30    86    1
    92    30    87    1
    93    31    88    1
    94    33    89    1
    95    34    90    1
    96    34    91    1
    97    36    92    1
    98    41    93    1
    99    42    94    1
   100    42    95    1
   101    42    96    1
   102    43    97    1
   103    43    98    1
   104    43    99    1
   105    44   100    1
   106    45   101    1
   107    46   102    1
   108    49   103    1
   109    49   104    1
   110    50   105    1
   111    53   106    1
   112    53   107    1
   113    54   108    1
   114    55   109    1
   115    57   110    1
   116    58   111    1
   117    59   112    1
   118    61   113    1
   119    62   114    1
   120    63   115    1
   121    65   116    1
   122    66   117    1
@<TRIPOS>MOLECULE
123882
 117 122 0 0 0
SMALL
GASTEIGER

@<TRIPOS>ATOM
      1 S         -19.0052   -4.7789    2.2927 S.2     3  UNK3       -0.0993
      2 O         -13.0232   -7.6334   -5.6704 O.2     1  UNK1       -0.2755
      3 O         -14.3866  -11.2413    4.3529 O.2     4  LEU4       -0.2738
      4 O         -13.6525   -7.0956   -1.8110 O.2     1  UNK1       -0.2737
      5 O         -13.4111   -9.2474    0.8265 O.2     5  TRP5       -0.2738
      6 O         -10.6180   -9.2029   -1.6111 O.2     6  ASP6       -0.2738
      7 O         -17.2461   -7.5300    3.7755 O.2     3  UNK3       -0.2734
      8 O         -16.9784   -8.9986   -0.3878 O.2     2  ASP2       -0.2737
      9 OD1       -10.5522  -12.8411    1.6663 O.co2   6  ASP6       -0.5497
     10 OD2       -10.8813  -14.2850   -0.0800 O.co2   6  ASP6       -0.5497
     11 OD1       -16.6857   -7.9863   -4.9775 O.co2   2  ASP2       -0.5497
     12 OD2       -18.1802   -6.2578   -4.7840 O.co2   2  ASP2       -0.5497
     13 N         -14.2846   -9.2066   -6.7679 N.am    1  UNK1       -0.2984
     14 N         -16.5210   -9.8545   -8.6092 N.pl3   1  UNK1       -0.3269
     15 N         -12.7060   -9.9926   -2.1807 N.am    1  UNK1       -0.3020
     16 N         -13.9548   -9.2142    3.3624 N.am    5  TRP5       -0.3022
     17 N         -16.4401   -9.0292    2.2711 N.am    4  LEU4       -0.3022
     18 N         -11.4312  -10.3752    1.0564 N.am    6  ASP6       -0.3021
     19 N         -15.3292   -8.3283   -2.7459 N.am    2  ASP2       -0.3021
     20 N         -16.5421   -6.8493    0.2018 N.am    3  UNK3       -0.2984
     21 NE1       -11.5011   -8.2436    7.1703 N.ar    5  TRP5       -0.3604
     22 C         -14.8977  -10.5374   -6.8527 C.3     1  UNK1        0.0304
     23 C         -14.7007   -8.2561   -7.8061 C.3     1  UNK1        0.0304
     24 C         -15.4613  -10.8227   -8.2561 C.3     1  UNK1        0.0280
     25 C         -16.1750   -8.4389   -8.2350 C.3     1  UNK1        0.0280
     26 C         -13.5757   -8.7337   -5.6699 C.2     1  UNK1        0.2179
     27 C         -13.4325   -9.6853   -4.4942 C.3     1  UNK1        0.0510
     28 C         -12.9734   -8.9801   -3.2151 C.3     1  UNK1        0.1076
     29 CA        -16.2366  -10.1049    3.2488 C.3     4  LEU4        0.0997
     30 CB        -16.8808  -11.4307    2.7898 C.3     4  LEU4       -0.0236
     31 CA        -12.5382   -9.4655    3.0795 C.3     5  TRP5        0.1034
     32 C         -17.8777  -10.1804   -8.4008 C.ar    1  UNK1        0.0298
     33 CG        -16.4190  -12.0292    1.4394 C.3     4  LEU4       -0.0446
     34 CB        -11.6451   -8.2880    3.4825 C.3     5  TRP5        0.0013
     35 C         -14.7707  -10.2759    3.6959 C.2     4  LEU4        0.2340
     36 CA        -11.5737  -11.0097   -0.2579 C.3     6  ASP6        0.1045
     37 C         -13.9957   -7.9986   -2.5779 C.2     1  UNK1        0.2344
     38 CG        -11.6852   -7.9972    4.9603 C.ar    5  TRP5       -0.0201
     39 C         -12.5064   -9.6741    1.5505 C.2     5  TRP5        0.2343
     40 C         -11.5635   -9.9596   -1.3974 C.2     6  ASP6        0.2343
     41 CA        -16.3593   -7.4585   -2.1875 C.3     2  ASP2        0.1045
     42 CD2       -14.9957  -12.5826    1.4672 C.3     4  LEU4       -0.0626
     43 CD1       -17.3749  -13.1543    1.0238 C.3     4  LEU4       -0.0626
     44 C         -17.3646   -6.8680    1.4076 C.3     3  UNK3        0.1311
     45 C         -18.8908   -9.2355   -8.6622 C.ar    1  UNK1       -0.0407
     46 C         -18.3188  -11.4375   -7.9547 C.ar    1  UNK1       -0.0407
     47 CD2       -12.2145   -6.8292    5.6049 C.ar    5  TRP5        0.0029
     48 C         -16.9592   -7.7963    2.6053 C.2     3  UNK3        0.2390
     49 CB        -10.4579  -12.0125   -0.5288 C.3     6  ASP6        0.0138
     50 CD1       -11.2383   -8.8343    5.9656 C.ar    5  TRP5        0.0060
     51 CE2       -12.0829   -7.0124    6.9830 C.ar    5  TRP5        0.0467
     52 C         -16.6299   -7.8659   -0.7229 C.2     2  ASP2        0.2345
     53 CB        -17.7003   -7.5944   -2.9089 C.3     2  ASP2        0.0138
     54 C         -20.2476   -9.5043   -8.4389 C.ar    1  UNK1       -0.0600
     55 C         -19.6766  -11.7198   -7.7376 C.ar    1  UNK1       -0.0600
     56 C         -17.4655   -5.4405    1.9096 C.ar    3  UNK3        0.0189
     57 CE3       -12.8109   -5.6364    5.1455 C.ar    5  TRP5       -0.0523
     58 C         -20.6415  -10.7493   -7.9714 C.ar    1  UNK1       -0.0616
     59 CZ2       -12.5141   -6.0653    7.9213 C.ar    5  TRP5       -0.0378
     60 CG        -10.6503  -13.1622    0.4437 C.2     6  ASP6        0.0440
     61 CZ3       -13.2453   -4.6773    6.0690 C.ar    5  TRP5       -0.0611
     62 C         -16.4571   -4.5175    2.1312 C.ar    3  UNK3       -0.0493
     63 CH2       -13.0975   -4.8911    7.4371 C.ar    5  TRP5       -0.0598
     64 CG        -17.5051   -7.2389   -4.3670 C.2     2  ASP2        0.0440
     65 C         -16.9534   -3.2734    2.6171 C.ar    3  UNK3       -0.0544
     66 C         -18.3215   -3.2864    2.7646 C.ar    3  UNK3       -0.0240
     67 H         -13.5313  -10.3554   -1.7134 H       1  UNK1        0.1495
     68 H         -14.3900   -8.5734    2.7044 H       5  TRP5        0.1495
     69 H         -16.2497   -9.2173    1.2836 H       4  LEU4        0.1495
     70 H         -10.9940  -11.0205    1.7261 H       6  ASP6        0.1495
     71 H         -15.5781   -8.6180   -3.6975 H       2  ASP2        0.1495
     72 H         -16.2735   -5.9461   -0.1679 H       3  UNK3        0.1498
     73 HE1       -11.3136   -8.6592    8.0706 H       5  TRP5        0.1653
     74 H         -15.6984  -10.5881   -6.1062 H       1  UNK1        0.0480
     75 H         -14.1394  -11.2835   -6.5938 H       1  UNK1        0.0480
     76 H         -14.0430   -8.4267   -8.6671 H       1  UNK1        0.0480
     77 H         -14.5421   -7.2235   -7.4780 H       1  UNK1        0.0480
     78 H         -14.6554  -10.7115   -8.9942 H       1  UNK1        0.0479
     79 H         -15.7708  -11.8662   -8.3525 H       1  UNK1        0.0479
     80 H         -16.8088   -8.0978   -7.4115 H       1  UNK1        0.0479
     81 H         -16.3663   -7.7908   -9.0985 H       1  UNK1        0.0479
     82 H         -12.6827  -10.4341   -4.7818 H       1  UNK1        0.0381
     83 H         -14.3672  -10.2251   -4.3157 H       1  UNK1        0.0381
     84 H         -12.0601   -8.4080   -3.4161 H       1  UNK1        0.0599
     85 HA        -16.7576   -9.8135    4.1703 H       4  LEU4        0.0594
     86 HB1       -17.9627  -11.2506    2.7229 H       4  LEU4        0.0290
     87 HB2       -16.7478  -12.1874    3.5743 H       4  LEU4        0.0290
     88 HA        -12.2203  -10.3923    3.5707 H       5  TRP5        0.0598
     89 HG        -16.4699  -11.2637    0.6606 H       4  LEU4        0.0296
     90 HB1       -11.9356   -7.3906    2.9217 H       5  TRP5        0.0337
     91 HB2       -10.6059   -8.4975    3.1979 H       5  TRP5        0.0337
     92 HA        -12.5402  -11.5310   -0.2583 H       6  ASP6        0.0598
     93 HA        -16.0122   -6.4198   -2.2414 H       2  ASP2        0.0598
     94 HD21      -14.8676  -13.3213    2.2649 H       4  LEU4        0.0232
     95 HD22      -14.2632  -11.7900    1.6125 H       4  LEU4        0.0232
     96 HD23      -14.7485  -13.0684    0.5164 H       4  LEU4        0.0232
     97 HD11      -17.3627  -13.9743    1.7498 H       4  LEU4        0.0232
     98 HD12      -17.0933  -13.5626    0.0469 H       4  LEU4        0.0232
     99 HD13      -18.4023  -12.7845    0.9428 H       4  LEU4        0.0232
    100 H         -18.3572   -7.2231    1.0965 H       3  UNK3        0.0651
    101 H         -18.6347   -8.2434   -9.0237 H       1  UNK1        0.0636
    102 H         -17.6240  -12.2340   -7.7193 H       1  UNK1        0.0636
    103 HB1        -9.4670  -11.5695   -0.3771 H       6  ASP6        0.0348
    104 HB2       -10.5053  -12.3764   -1.5621 H       6  ASP6        0.0348
    105 HD1       -10.7931   -9.8199    5.9191 H       5  TRP5        0.0810
    106 HB1       -18.4509   -6.9408   -2.4480 H       2  ASP2        0.0348
    107 HB2       -18.0857   -8.6202   -2.8517 H       2  ASP2        0.0348
    108 H         -20.9831   -8.7238   -8.6107 H       1  UNK1        0.0618
    109 H         -19.9677  -12.6958   -7.3604 H       1  UNK1        0.0618
    110 HE3       -12.9437   -5.4654    4.0815 H       5  TRP5        0.0624
    111 H         -21.6886  -10.9553   -7.7749 H       1  UNK1        0.0618
    112 HZ2       -12.4119   -6.2378    8.9870 H       5  TRP5        0.0638
    113 HZ3       -13.7126   -3.7646    5.7095 H       5  TRP5        0.0618
    114 H         -15.4084   -4.7296    1.9539 H       3  UNK3        0.0626
    115 HH2       -13.4510   -4.1400    8.1385 H       5  TRP5        0.0618
    116 H         -16.3354   -2.4169    2.8543 H       3  UNK3        0.0623
    117 H         -18.9578   -2.4907    3.1245 H       3  UNK3        0.0693
@<TRIPOS>BOND
     1     1    56   ar
     2     1    66   ar
     3     2    26    2
     4     3    35    2
     5     4    37    2
     6     5    39    2
     7     6    40    2
     8     7    48    2
     9     8    52    2
    10     9    60   ar
    11    10    60   ar
    12    11    64   ar
    13    12    64   ar
    14    13    22    1
    15    13    23    1
    16    14    24    1
    17    14    25    1
    18    14    32    1
    19    15    28    1
    20    15    40   am
    21    16    35   am
    22    16    31    1
    23    17    48   am
    24    17    29    1
    25    18    39   am
    26    18    36    1
    27    19    37   am
    28    19    41    1
    29    20    52   am
    30    20    44    1
    31    21    50   ar
    32    21    51   ar
    33    22    24    1
    34    23    25    1
    35    26    27    1
    36    26    13   am
    37    28    37    1
    38    28    27    1
    39    29    35    1
    40    29    30    1
    41    30    33    1
    42    31    39    1
    43    31    34    1
    44    32    45   ar
    45    32    46   ar
    46    33    43    1
    47    33    42    1
    48    34    38    1
    49    36    40    1
    50    36    49    1
    51    38    47   ar
    52    38    50   ar
    53    41    52    1
    54    41    53    1
    55    44    48    1
    56    44    56    1
    57    45    54   ar
    58    46    55   ar
    59    47    57   ar
    60    47    51   ar
    61    49    60    1
    62    51    59   ar
    63    53    64    1
    64    54    58   ar
    65    55    58   ar
    66    56    62   ar
    67    57    61   ar
    68    59    63   ar
    69    61    63   ar
    70    62    65   ar
    71    65    66   ar
    72    15    67    1
    73    16    68    1
    74    17    69    1
    75    18    70    1
    76    19    71    1
    77    20    72    1
    78    21    73    1
    79    22    74    1
    80    22    75    1
    81    23    76    1
    82    23    77    1
    83    24    78    1
    84    24    79    1
    85    25    80    1
    86    25    81    1
    87    27    82    1
    88    27    83    1
    89    28    84    1
    90    29    85    1
    91    30    86    1
    92    30    87    1
    93    31    88    1
    94    33    89    1
    95    34    90    1
    96    34    91    1
    97    36    92    1
    98    41    93    1
    99    42    94    1
   100    42    95    1
   101    42    96    1
   102    43    97    1
   103    43    98    1
   104    43    99    1
   105    44   100    1
   106    45   101    1
   107    46   102    1
   108    49   103    1
   109    49   104    1
   110    50   105    1
   111    53   106    1
   112    53   107    1
   113    54   108    1
   114    55   109    1
   115    57   110    1
   116    58   111    1
   117    59   112    1
   118    61   113    1
   119    62   114    1
   120    63   115    1
   121    65   116    1
   122    66   117    1
@<TRIPOS>MOLECULE
123882
 117 122 0 0 0
SMALL
GASTEIGER

@<TRIPOS>ATOM
      1 S         -18.2414   -5.0010    3.6589 S.2     3  UNK3       -0.0993
      2 O         -11.4882  -10.5786   -5.2804 O.2     1  UNK1       -0.2755
      3 O         -14.2740  -11.3253    4.3872 O.2     4  LEU4       -0.2738
      4 O         -13.7064   -6.8225   -3.1723 O.2     1  UNK1       -0.2737
      5 O         -13.4157   -9.0822    0.8805 O.2     5  TRP5       -0.2738
      6 O         -10.9050   -9.0638   -1.4902 O.2     6  ASP6       -0.2738
      7 O         -16.7214   -7.5463    4.0602 O.2     3  UNK3       -0.2734
      8 O         -17.2778   -8.9591   -0.2212 O.2     2  ASP2       -0.2737
      9 OD1       -10.5310  -12.7654    1.6546 O.co2   6  ASP6       -0.5497
     10 OD2       -10.8193  -14.3228    0.0058 O.co2   6  ASP6       -0.5497
     11 OD1       -19.0017   -8.7026   -3.4102 O.co2   2  ASP2       -0.5497
     12 OD2       -16.9306   -9.6741   -3.4976 O.co2   2  ASP2       -0.5497
     13 N         -13.2867  -11.3327   -6.4600 N.am    1  UNK1       -0.2984
     14 N         -14.5889  -13.7460   -7.4800 N.pl3   1  UNK1       -0.3269
     15 N         -12.7624  -10.1313   -2.3196 N.am    1  UNK1       -0.3020
     16 N         -13.9455   -9.2834    3.4141 N.am    5  TRP5       -0.3022
     17 N         -16.4512   -9.1072    2.4408 N.am    4  LEU4       -0.3022
     18 N         -11.5322  -10.3843    1.0327 N.am    6  ASP6       -0.3021
     19 N         -14.9874   -8.4212   -2.1401 N.am    2  ASP2       -0.3021
     20 N         -16.5802   -6.9342    0.5180 N.am    3  UNK3       -0.2984
     21 NE1        -8.1420   -8.9347    3.3019 N.ar    5  TRP5       -0.3604
     22 C         -12.4992  -12.4496   -6.9801 C.3     1  UNK1        0.0304
     23 C         -14.7046  -11.3232   -6.8405 C.3     1  UNK1        0.0304
     24 C         -13.2544  -13.3425   -7.9827 C.3     1  UNK1        0.0280
     25 C         -15.3150  -12.7225   -6.6803 C.3     1  UNK1        0.0280
     26 C         -12.7068  -10.5688   -5.4536 C.2     1  UNK1        0.2179
     27 C         -13.6491   -9.7462   -4.6000 C.3     1  UNK1        0.0510
     28 C         -12.9719   -9.1348   -3.3743 C.3     1  UNK1        0.1076
     29 CA        -16.2121  -10.2445    3.3497 C.3     4  LEU4        0.0997
     30 CB        -16.7226  -11.5157    2.6431 C.3     4  LEU4       -0.0236
     31 CA        -12.5196   -9.4519    3.0986 C.3     5  TRP5        0.1034
     32 C         -14.9367  -15.0894   -7.3407 C.ar    1  UNK1        0.0298
     33 CG        -16.8122  -12.8107    3.4725 C.3     4  LEU4       -0.0446
     34 CB        -11.7445   -8.2102    3.5385 C.3     5  TRP5        0.0013
     35 C         -14.7191  -10.3722    3.7534 C.2     4  LEU4        0.2340
     36 CA        -11.7382  -11.0185   -0.2666 C.3     6  ASP6        0.1045
     37 C         -13.8767   -7.9990   -2.8488 C.2     1  UNK1        0.2344
     38 CG        -10.2668   -8.2623    3.3093 C.ar    5  TRP5       -0.0201
     39 C         -12.5321   -9.6101    1.5650 C.2     5  TRP5        0.2343
     40 C         -11.7433   -9.9573   -1.3940 C.2     6  ASP6        0.2343
     41 CA        -16.0614   -7.5071   -1.8051 C.3     2  ASP2        0.1045
     42 CD2       -17.6298  -12.6412    4.7513 C.3     4  LEU4       -0.0626
     43 CD1       -17.4243  -13.9217    2.6107 C.3     4  LEU4       -0.0626
     44 C         -17.3820   -6.9248    1.7418 C.3     3  UNK3        0.1311
     45 C         -15.9412  -15.5133   -6.4508 C.ar    1  UNK1       -0.0407
     46 C         -14.3298  -16.1047   -8.0998 C.ar    1  UNK1       -0.0407
     47 CD2        -9.4828   -7.3140    2.5739 C.ar    5  TRP5        0.0029
     48 C         -16.7801   -7.8323    2.8683 C.2     3  UNK3        0.2390
     49 CB        -10.6568  -12.0459   -0.5847 C.3     6  ASP6        0.0138
     50 CD1        -9.3949   -9.2322    3.7641 C.ar    5  TRP5        0.0060
     51 CE2        -8.1581   -7.7503    2.6035 C.ar    5  TRP5        0.0467
     52 C         -16.7131   -7.8962   -0.4606 C.2     2  ASP2        0.2345
     53 CB        -17.1141   -7.3931   -2.9009 C.3     2  ASP2        0.0138
     54 C         -16.2740  -16.8637   -6.2784 C.ar    1  UNK1       -0.0600
     55 C         -14.6525  -17.4599   -7.9341 C.ar    1  UNK1       -0.0600
     56 C         -17.6028   -5.4625    2.1270 C.ar    3  UNK3        0.0189
     57 CE3        -9.7818   -6.1293    1.8691 C.ar    5  TRP5       -0.0523
     58 C         -15.6196  -17.8406   -7.0137 C.ar    1  UNK1       -0.0616
     59 CZ2        -7.1169   -7.0562    1.9740 C.ar    5  TRP5       -0.0378
     60 CG        -10.6789  -13.1535    0.4560 C.2     6  ASP6        0.0440
     61 CZ3        -8.7549   -5.4252    1.2305 C.ar    5  TRP5       -0.0611
     62 C         -17.4844   -4.3393    1.3142 C.ar    3  UNK3       -0.0493
     63 CH2        -7.4412   -5.8825    1.2866 C.ar    5  TRP5       -0.0598
     64 CG        -17.7462   -8.7279   -3.2811 C.2     2  ASP2        0.0440
     65 C         -17.8058   -3.1217    1.9784 C.ar    3  UNK3       -0.0544
     66 C         -18.1982   -3.3393    3.2763 C.ar    3  UNK3       -0.0240
     67 H         -13.5730  -10.6437   -1.9948 H       1  UNK1        0.1495
     68 H         -14.4199   -8.6675    2.7598 H       5  TRP5        0.1495
     69 H         -16.5685   -9.3189    1.4461 H       4  LEU4        0.1495
     70 H         -11.0449  -11.0087    1.6874 H       6  ASP6        0.1495
     71 H         -15.3403   -9.3559   -2.3589 H       2  ASP2        0.1495
     72 H         -15.7576   -6.3452    0.4759 H       3  UNK3        0.1498
     73 HE1        -7.3264   -9.5151    3.4319 H       5  TRP5        0.1653
     74 H         -12.1939  -13.0583   -6.1189 H       1  UNK1        0.0480
     75 H         -11.5866  -12.0517   -7.4385 H       1  UNK1        0.0480
     76 H         -14.7443  -11.0122   -7.8917 H       1  UNK1        0.0480
     77 H         -15.2799  -10.5896   -6.2738 H       1  UNK1        0.0480
     78 H         -13.4012  -12.7935   -8.9211 H       1  UNK1        0.0479
     79 H         -12.6001  -14.1879   -8.2128 H       1  UNK1        0.0479
     80 H         -15.2705  -12.9816   -5.6153 H       1  UNK1        0.0479
     81 H         -16.3637  -12.6879   -6.9980 H       1  UNK1        0.0479
     82 H         -14.4701  -10.3941   -4.2739 H       1  UNK1        0.0381
     83 H         -14.0563   -8.9520   -5.2374 H       1  UNK1        0.0381
     84 H         -12.0071   -8.6850   -3.6359 H       1  UNK1        0.0599
     85 HA        -16.7770  -10.0518    4.2674 H       4  LEU4        0.0594
     86 HB1       -16.0864  -11.7091    1.7676 H       4  LEU4        0.0290
     87 HB2       -17.7235  -11.3017    2.2407 H       4  LEU4        0.0290
     88 HA        -12.1393  -10.3667    3.5655 H       5  TRP5        0.0598
     89 HG        -15.8040  -13.1382    3.7476 H       4  LEU4        0.0296
     90 HB1       -11.9108   -8.0495    4.6129 H       5  TRP5        0.0337
     91 HB2       -12.1634   -7.3256    3.0418 H       5  TRP5        0.0337
     92 HA        -12.7187  -11.5112   -0.2253 H       6  ASP6        0.0598
     93 HA        -15.6189   -6.5101   -1.6830 H       2  ASP2        0.0598
     94 HD21      -18.6280  -12.2461    4.5354 H       4  LEU4        0.0232
     95 HD22      -17.1349  -11.9615    5.4513 H       4  LEU4        0.0232
     96 HD23      -17.7502  -13.6014    5.2646 H       4  LEU4        0.0232
     97 HD11      -18.4507  -13.6769    2.3159 H       4  LEU4        0.0232
     98 HD12      -17.4468  -14.8710    3.1560 H       4  LEU4        0.0232
     99 HD13      -16.8378  -14.0753    1.6984 H       4  LEU4        0.0232
    100 H         -18.3647   -7.3536    1.5015 H       3  UNK3        0.0651
    101 H         -16.4865  -14.7997   -5.8390 H       1  UNK1        0.0636
    102 H         -13.5909  -15.8661   -8.8573 H       1  UNK1        0.0636
    103 HB1        -9.6608  -11.5867   -0.5803 H       6  ASP6        0.0348
    104 HB2       -10.8148  -12.4658   -1.5857 H       6  ASP6        0.0348
    105 HD1        -9.5681  -10.1367    4.3335 H       5  TRP5        0.0810
    106 HB1       -16.6658   -6.9807   -3.8136 H       2  ASP2        0.0348
    107 HB2       -17.9004   -6.6967   -2.5834 H       2  ASP2        0.0348
    108 H         -17.0380  -17.1371   -5.5561 H       1  UNK1        0.0618
    109 H         -14.1399  -18.2117   -8.5267 H       1  UNK1        0.0618
    110 HE3       -10.8063   -5.7781    1.7947 H       5  TRP5        0.0624
    111 H         -15.8645  -18.8883   -6.8707 H       1  UNK1        0.0618
    112 HZ2        -6.0981   -7.4263    1.9941 H       5  TRP5        0.0638
    113 HZ3        -8.9956   -4.5281    0.6669 H       5  TRP5        0.0618
    114 H         -17.1821   -4.3868    0.2739 H       3  UNK3        0.0626
    115 HH2        -6.6609   -5.3332    0.7672 H       5  TRP5        0.0618
    116 H         -17.7582   -2.1416    1.5210 H       3  UNK3        0.0623
    117 H         -18.4930   -2.6050    4.0123 H       3  UNK3        0.0693
@<TRIPOS>BOND
     1     1    56   ar
     2     1    66   ar
     3     2    26    2
     4     3    35    2
     5     4    37    2
     6     5    39    2
     7     6    40    2
     8     7    48    2
     9     8    52    2
    10     9    60   ar
    11    10    60   ar
    12    11    64   ar
    13    12    64   ar
    14    13    22    1
    15    13    23    1
    16    14    24    1
    17    14    25    1
    18    14    32    1
    19    15    28    1
    20    15    40   am
    21    16    35   am
    22    16    31    1
    23    17    48   am
    24    17    29    1
    25    18    39   am
    26    18    36    1
    27    19    37   am
    28    19    41    1
    29    20    52   am
    30    20    44    1
    31    21    50   ar
    32    21    51   ar
    33    22    24    1
    34    23    25    1
    35    26    27    1
    36    26    13   am
    37    28    37    1
    38    28    27    1
    39    29    35    1
    40    29    30    1
    41    30    33    1
    42    31    39    1
    43    31    34    1
    44    32    45   ar
    45    32    46   ar
    46    33    43    1
    47    33    42    1
    48    34    38    1
    49    36    40    1
    50    36    49    1
    51    38    47   ar
    52    38    50   ar
    53    41    52    1
    54    41    53    1
    55    44    48    1
    56    44    56    1
    57    45    54   ar
    58    46    55   ar
    59    47    57   ar
    60    47    51   ar
    61    49    60    1
    62    51    59   ar
    63    53    64    1
    64    54    58   ar
    65    55    58   ar
    66    56    62   ar
    67    57    61   ar
    68    59    63   ar
    69    61    63   ar
    70    62    65   ar
    71    65    66   ar
    72    15    67    1
    73    16    68    1
    74    17    69    1
    75    18    70    1
    76    19    71    1
    77    20    72    1
    78    21    73    1
    79    22    74    1
    80    22    75    1
    81    23    76    1
    82    23    77    1
    83    24    78    1
    84    24    79    1
    85    25    80    1
    86    25    81    1
    87    27    82    1
    88    27    83    1
    89    28    84    1
    90    29    85    1
    91    30    86    1
    92    30    87    1
    93    31    88    1
    94    33    89    1
    95    34    90    1
    96    34    91    1
    97    36    92    1
    98    41    93    1
    99    42    94    1
   100    42    95    1
   101    42    96    1
   102    43    97    1
   103    43    98    1
   104    43    99    1
   105    44   100    1
   106    45   101    1
   107    46   102    1
   108    49   103    1
   109    49   104    1
   110    50   105    1
   111    53   106    1
   112    53   107    1
   113    54   108    1
   114    55   109    1
   115    57   110    1
   116    58   111    1
   117    59   112    1
   118    61   113    1
   119    62   114    1
   120    63   115    1
   121    65   116    1
   122    66   117    1
@<TRIPOS>MOLECULE
123882
 117 122 0 0 0
SMALL
GASTEIGER

@<TRIPOS>ATOM
      1 S         -16.3088   -4.7962    2.7594 S.2     3  UNK3       -0.0993
      2 O         -12.8255   -7.7740   -5.7171 O.2     1  UNK1       -0.2755
      3 O         -14.4561  -11.2806    4.3853 O.2     4  LEU4       -0.2738
      4 O         -13.5519   -6.9270   -2.2201 O.2     1  UNK1       -0.2737
      5 O         -13.5152   -9.3494    0.9020 O.2     5  TRP5       -0.2738
      6 O         -10.6579   -9.2437   -1.4614 O.2     6  ASP6       -0.2738
      7 O         -17.9490   -7.8112    3.5739 O.2     3  UNK3       -0.2734
      8 O         -16.9006   -9.1290   -0.3829 O.2     2  ASP2       -0.2737
      9 OD1       -10.6234  -12.9419    1.7315 O.co2   6  ASP6       -0.5497
     10 OD2       -11.0506  -14.3402   -0.0321 O.co2   6  ASP6       -0.5497
     11 OD1       -16.7728   -7.0842   -5.0295 O.co2   2  ASP2       -0.5497
     12 OD2       -18.5476   -5.9962   -4.0940 O.co2   2  ASP2       -0.5497
     13 N         -14.3017   -9.2239   -6.7030 N.am    1  UNK1       -0.2984
     14 N         -16.5571   -9.8104   -8.5283 N.pl3   1  UNK1       -0.3269
     15 N         -12.7025  -10.0555   -2.1440 N.am    1  UNK1       -0.3020
     16 N         -14.0154   -9.2374    3.4533 N.am    5  TRP5       -0.3022
     17 N         -16.3915   -8.9560    2.3642 N.am    4  LEU4       -0.3022
     18 N         -11.5231  -10.4529    1.1406 N.am    6  ASP6       -0.3021
     19 N         -15.2162   -8.4362   -2.6396 N.am    2  ASP2       -0.3021
     20 N         -16.4977   -6.9735    0.2303 N.am    3  UNK3       -0.2984
     21 NE1       -11.1462   -8.1266    7.1575 N.ar    5  TRP5       -0.3604
     22 C         -14.9043  -10.5552   -6.8304 C.3     1  UNK1        0.0304
     23 C         -14.7397   -8.2306   -7.6905 C.3     1  UNK1        0.0304
     24 C         -15.4871  -10.7858   -8.2365 C.3     1  UNK1        0.0280
     25 C         -16.2201   -8.4094   -8.0912 C.3     1  UNK1        0.0280
     26 C         -13.4806   -8.8142   -5.6626 C.2     1  UNK1        0.2179
     27 C         -13.3569   -9.7663   -4.4877 C.3     1  UNK1        0.0510
     28 C         -12.8928   -9.0601   -3.2100 C.3     1  UNK1        0.1076
     29 CA        -16.3011  -10.1085    3.2831 C.3     4  LEU4        0.0997
     30 CB        -16.8432  -11.3484    2.5460 C.3     4  LEU4       -0.0236
     31 CA        -12.6059   -9.4948    3.1538 C.3     5  TRP5        0.1034
     32 C         -17.9106  -10.1543   -8.3401 C.ar    1  UNK1        0.0298
     33 CG        -16.9313  -12.6694    3.3363 C.3     4  LEU4       -0.0446
     34 CB        -11.7156   -8.3008    3.5133 C.3     5  TRP5        0.0013
     35 C         -14.8413  -10.3011    3.7535 C.2     4  LEU4        0.2340
     36 CA        -11.6504  -11.0775   -0.1782 C.3     6  ASP6        0.1045
     37 C         -13.9027   -8.0134   -2.6790 C.2     1  UNK1        0.2344
     38 CG        -11.6847   -8.0265    4.9951 C.ar    5  TRP5       -0.0201
     39 C         -12.6000   -9.7500    1.6296 C.2     5  TRP5        0.2343
     40 C         -11.6024  -10.0137   -1.3019 C.2     6  ASP6        0.2343
     41 CA        -16.2857   -7.5727   -2.1604 C.3     2  ASP2        0.1045
     42 CD2       -17.7214  -12.5329    4.6356 C.3     4  LEU4       -0.0626
     43 CD1       -17.5607  -13.7540    2.4544 C.3     4  LEU4       -0.0626
     44 C         -17.4527   -6.9473    1.3323 C.3     3  UNK3        0.1311
     45 C         -18.9286   -9.2046   -8.5618 C.ar    1  UNK1       -0.0407
     46 C         -18.3439  -11.4324   -7.9507 C.ar    1  UNK1       -0.0407
     47 CD2       -12.5802   -7.1876    5.7394 C.ar    5  TRP5        0.0029
     48 C         -17.2726   -7.9141    2.5475 C.2     3  UNK3        0.2390
     49 CB        -10.5371  -12.0827   -0.4488 C.3     6  ASP6        0.0138
     50 CD1       -10.8062   -8.5747    5.9101 C.ar    5  TRP5        0.0060
     51 CE2       -12.2241   -7.2767    7.0854 C.ar    5  TRP5        0.0467
     52 C         -16.5752   -7.9842   -0.7031 C.2     2  ASP2        0.2345
     53 CB        -17.5839   -7.7857   -2.9306 C.3     2  ASP2        0.0138
     54 C         -20.2839   -9.4912   -8.3554 C.ar    1  UNK1       -0.0600
     55 C         -19.7003  -11.7319   -7.7496 C.ar    1  UNK1       -0.0600
     56 C         -17.5437   -5.5109    1.8044 C.ar    3  UNK3        0.0189
     57 CE3       -13.6826   -6.3794    5.3940 C.ar    5  TRP5       -0.0523
     58 C         -20.6707  -10.7580   -7.9438 C.ar    1  UNK1       -0.0616
     59 CZ2       -12.9155   -6.6023    8.1008 C.ar    5  TRP5       -0.0378
     60 CG        -10.7576  -13.2391    0.5068 C.2     6  ASP6        0.0440
     61 CZ3       -14.3887   -5.7015    6.3945 C.ar    5  TRP5       -0.0611
     62 C         -18.5323   -4.5908    1.5014 C.ar    3  UNK3       -0.0493
     63 CH2       -14.0086   -5.8131    7.7288 C.ar    5  TRP5       -0.0598
     64 CG        -17.6282   -6.8606   -4.1302 C.2     2  ASP2        0.0440
     65 C         -18.2888   -3.3132    2.0816 C.ar    3  UNK3       -0.0544
     66 C         -17.1177   -3.2915    2.8032 C.ar    3  UNK3       -0.0240
     67 H         -13.5438  -10.4227   -1.7138 H       1  UNK1        0.1495
     68 H         -14.4535   -8.5608    2.8352 H       5  TRP5        0.1495
     69 H         -16.0158   -9.0870    1.4213 H       4  LEU4        0.1495
     70 H         -11.0808  -11.0922    1.8124 H       6  ASP6        0.1495
     71 H         -15.4565   -9.3996   -2.8105 H       2  ASP2        0.1495
     72 H         -16.1922   -6.0737   -0.1248 H       3  UNK3        0.1498
     73 HE1       -10.6893   -8.4002    8.0145 H       5  TRP5        0.1653
     74 H         -15.6935  -10.6386   -6.0748 H       1  UNK1        0.0480
     75 H         -14.1377  -11.3062   -6.6122 H       1  UNK1        0.0480
     76 H         -14.0972   -8.3568   -8.5708 H       1  UNK1        0.0480
     77 H         -14.5794   -7.2147   -7.3137 H       1  UNK1        0.0480
     78 H         -14.6936  -10.6380   -8.9816 H       1  UNK1        0.0479
     79 H         -15.7922  -11.8263   -8.3703 H       1  UNK1        0.0479
     80 H         -16.8347   -8.1393   -7.2280 H       1  UNK1        0.0479
     81 H         -16.4458   -7.7158   -8.9094 H       1  UNK1        0.0479
     82 H         -12.6245  -10.5337   -4.7684 H       1  UNK1        0.0381
     83 H         -14.3059  -10.2813   -4.3148 H       1  UNK1        0.0381
     84 H         -11.9477   -8.5377   -3.4000 H       1  UNK1        0.0599
     85 HA        -16.8985   -9.8951    4.1746 H       4  LEU4        0.0594
     86 HB1       -16.2197  -11.5260    1.6578 H       4  LEU4        0.0290
     87 HB2       -17.8440  -11.1053    2.1625 H       4  LEU4        0.0290
     88 HA        -12.2760  -10.4042    3.6689 H       5  TRP5        0.0598
     89 HG        -15.9216  -13.0151    3.5815 H       4  LEU4        0.0296
     90 HB1       -12.0556   -7.3996    2.9865 H       5  TRP5        0.0337
     91 HB2       -10.6905   -8.4840    3.1652 H       5  TRP5        0.0337
     92 HA        -12.6235  -11.5875   -0.2002 H       6  ASP6        0.0598
     93 HA        -15.9655   -6.5256   -2.1985 H       2  ASP2        0.0598
     94 HD21      -18.7258  -12.1384    4.4501 H       4  LEU4        0.0232
     95 HD22      -17.2152  -11.8668    5.3402 H       4  LEU4        0.0232
     96 HD23      -17.8258  -13.5054    5.1293 H       4  LEU4        0.0232
     97 HD11      -18.5903  -13.4986    2.1819 H       4  LEU4        0.0232
     98 HD12      -17.5766  -14.7175    2.9747 H       4  LEU4        0.0232
     99 HD13      -16.9870  -13.8854    1.5305 H       4  LEU4        0.0232
    100 H         -18.4243   -7.2312    0.9025 H       3  UNK3        0.0651
    101 H         -18.6781   -8.1963   -8.8814 H       1  UNK1        0.0636
    102 H         -17.6445  -12.2351   -7.7528 H       1  UNK1        0.0636
    103 HB1        -9.5454  -11.6488   -0.2780 H       6  ASP6        0.0348
    104 HB2       -10.5726  -12.4338   -1.4867 H       6  ASP6        0.0348
    105 HD1        -9.9902   -9.2725    5.7772 H       5  TRP5        0.0810
    106 HB1       -18.4515   -7.5604   -2.2941 H       2  ASP2        0.0348
    107 HB2       -17.7004   -8.8240   -3.2652 H       2  ASP2        0.0348
    108 H         -21.0239   -8.7093   -8.4987 H       1  UNK1        0.0618
    109 H         -19.9873  -12.7261   -7.4194 H       1  UNK1        0.0618
    110 HE3       -13.9955   -6.3006    4.3578 H       5  TRP5        0.0624
    111 H         -21.7175  -10.9791   -7.7627 H       1  UNK1        0.0618
    112 HZ2       -12.6286   -6.6989    9.1422 H       5  TRP5        0.0638
    113 HZ3       -15.2497   -5.0974    6.1211 H       5  TRP5        0.0618
    114 H         -19.3888   -4.8255    0.8790 H       3  UNK3        0.0626
    115 HH2       -14.5771   -5.2890    8.4924 H       5  TRP5        0.0618
    116 H         -18.9371   -2.4540    1.9667 H       3  UNK3        0.0623
    117 H         -16.6866   -2.4606    3.3434 H       3  UNK3        0.0693
@<TRIPOS>BOND
     1     1    56   ar
     2     1    66   ar
     3     2    26    2
     4     3    35    2
     5     4    37    2
     6     5    39    2
     7     6    40    2
     8     7    48    2
     9     8    52    2
    10     9    60   ar
    11    10    60   ar
    12    11    64   ar
    13    12    64   ar
    14    13    22    1
    15    13    23    1
    16    14    24    1
    17    14    25    1
    18    14    32    1
    19    15    28    1
    20    15    40   am
    21    16    35   am
    22    16    31    1
    23    17    48   am
    24    17    29    1
    25    18    39   am
    26    18    36    1
    27    19    37   am
    28    19    41    1
    29    20    52   am
    30    20    44    1
    31    21    50   ar
    32    21    51   ar
    33    22    24    1
    34    23    25    1
    35    26    27    1
    36    26    13   am
    37    28    37    1
    38    28    27    1
    39    29    35    1
    40    29    30    1
    41    30    33    1
    42    31    39    1
    43    31    34    1
    44    32    45   ar
    45    32    46   ar
    46    33    43    1
    47    33    42    1
    48    34    38    1
    49    36    40    1
    50    36    49    1
    51    38    47   ar
    52    38    50   ar
    53    41    52    1
    54    41    53    1
    55    44    48    1
    56    44    56    1
    57    45    54   ar
    58    46    55   ar
    59    47    57   ar
    60    47    51   ar
    61    49    60    1
    62    51    59   ar
    63    53    64    1
    64    54    58   ar
    65    55    58   ar
    66    56    62   ar
    67    57    61   ar
    68    59    63   ar
    69    61    63   ar
    70    62    65   ar
    71    65    66   ar
    72    15    67    1
    73    16    68    1
    74    17    69    1
    75    18    70    1
    76    19    71    1
    77    20    72    1
    78    21    73    1
    79    22    74    1
    80    22    75    1
    81    23    76    1
    82    23    77    1
    83    24    78    1
    84    24    79    1
    85    25    80    1
    86    25    81    1
    87    27    82    1
    88    27    83    1
    89    28    84    1
    90    29    85    1
    91    30    86    1
    92    30    87    1
    93    31    88    1
    94    33    89    1
    95    34    90    1
    96    34    91    1
    97    36    92    1
    98    41    93    1
    99    42    94    1
   100    42    95    1
   101    42    96    1
   102    43    97    1
   103    43    98    1
   104    43    99    1
   105    44   100    1
   106    45   101    1
   107    46   102    1
   108    49   103    1
   109    49   104    1
   110    50   105    1
   111    53   106    1
   112    53   107    1
   113    54   108    1
   114    55   109    1
   115    57   110    1
   116    58   111    1
   117    59   112    1
   118    61   113    1
   119    62   114    1
   120    63   115    1
   121    65   116    1
   122    66   117    1
@<TRIPOS>MOLECULE
123882
 117 122 0 0 0
SMALL
GASTEIGER

@<TRIPOS>ATOM
      1 S         -16.9660   -4.0073    1.1082 S.2     3  UNK3       -0.0993
      2 O         -11.7925  -11.5144   -4.5077 O.2     1  UNK1       -0.2755
      3 O         -14.3699  -11.3363    4.3010 O.2     4  LEU4       -0.2738
      4 O         -13.6799   -6.8606   -3.4282 O.2     1  UNK1       -0.2737
      5 O         -13.4749   -9.1447    0.9271 O.2     5  TRP5       -0.2738
      6 O         -11.0137   -8.9187   -1.3855 O.2     6  ASP6       -0.2738
      7 O         -17.0743   -7.5497    3.8723 O.2     3  UNK3       -0.2734
      8 O         -16.5162   -8.9944   -0.2561 O.2     2  ASP2       -0.2737
      9 OD1       -10.6142  -12.8066    1.6231 O.co2   6  ASP6       -0.5497
     10 OD2       -11.0620  -14.2417   -0.1027 O.co2   6  ASP6       -0.5497
     11 OD1       -18.1109   -5.4130   -2.2769 O.co2   2  ASP2       -0.5497
     12 OD2       -19.4018   -7.1535   -1.5722 O.co2   2  ASP2       -0.5497
     13 N         -12.6979  -11.1508   -6.5661 N.am    1  UNK1       -0.2984
     14 N         -11.8086  -10.7108   -9.2839 N.pl3   1  UNK1       -0.3269
     15 N         -12.8155  -10.0651   -2.2348 N.am    1  UNK1       -0.3020
     16 N         -13.9671   -9.2197    3.5209 N.am    5  TRP5       -0.3022
     17 N         -16.4114   -9.0394    2.3139 N.am    4  LEU4       -0.3022
     18 N         -11.5259  -10.3355    1.1035 N.am    6  ASP6       -0.3021
     19 N         -15.1347   -8.4022   -2.5386 N.am    2  ASP2       -0.3021
     20 N         -16.4427   -6.7724    0.2952 N.am    3  UNK3       -0.2984
     21 NE1       -12.1709   -5.1450    1.7173 N.ar    5  TRP5       -0.3604
     22 C         -13.5051  -10.3588   -7.5063 C.3     1  UNK1        0.0304
     23 C         -11.7708  -12.1084   -7.1799 C.3     1  UNK1        0.0304
     24 C         -13.2557  -10.7559   -8.9738 C.3     1  UNK1        0.0280
     25 C         -10.9515  -11.4379   -8.2975 C.3     1  UNK1        0.0280
     26 C         -12.5899  -10.8929   -5.2088 C.2     1  UNK1        0.2179
     27 C         -13.5594   -9.8971   -4.6047 C.3     1  UNK1        0.0510
     28 C         -12.9692   -9.1825   -3.3844 C.3     1  UNK1        0.1076
     29 CA        -16.2245  -10.1574    3.2418 C.3     4  LEU4        0.0997
     30 CB        -16.8445  -11.4711    2.7020 C.3     4  LEU4       -0.0236
     31 CA        -12.5623   -9.4213    3.1617 C.3     5  TRP5        0.1034
     32 C         -11.2280   -9.5779   -9.8715 C.ar    1  UNK1        0.0298
     33 CG        -16.3650  -12.0038    1.3294 C.3     4  LEU4       -0.0446
     34 CB        -11.6633   -8.2655    3.6083 C.3     5  TRP5        0.0013
     35 C         -14.7657  -10.3309    3.7156 C.2     4  LEU4        0.2340
     36 CA        -11.7397  -10.9452   -0.2100 C.3     6  ASP6        0.1045
     37 C         -13.9150   -8.0083   -3.0533 C.2     1  UNK1        0.2344
     38 CG        -12.0406   -6.9164    3.0650 C.ar    5  TRP5       -0.0201
     39 C         -12.5669   -9.6005    1.6295 C.2     5  TRP5        0.2343
     40 C         -11.8015   -9.8612   -1.3104 C.2     6  ASP6        0.2343
     41 CA        -16.1376   -7.4410   -2.0610 C.3     2  ASP2        0.1045
     42 CD2       -14.9241  -12.5014    1.3323 C.3     4  LEU4       -0.0626
     43 CD1       -17.2712  -13.1467    0.8561 C.3     4  LEU4       -0.0626
     44 C         -17.2829   -6.8219    1.4949 C.3     3  UNK3        0.1311
     45 C          -9.8495   -9.5457  -10.1619 C.ar    1  UNK1       -0.0407
     46 C         -11.9568   -8.4334  -10.2316 C.ar    1  UNK1       -0.0407
     47 CD2       -12.9508   -5.9665    3.6347 C.ar    5  TRP5        0.0029
     48 C         -16.8539   -7.7837    2.6804 C.2     3  UNK3        0.2390
     49 CB        -10.6638  -11.9615   -0.5676 C.3     6  ASP6        0.0138
     50 CD1       -11.5753   -6.3636    1.8877 C.ar    5  TRP5        0.0060
     51 CE2       -12.9816   -4.8569    2.7894 C.ar    5  TRP5        0.0467
     52 C         -16.3799   -7.8174   -0.5888 C.2     2  ASP2        0.2345
     53 CB        -17.4519   -7.6079   -2.8160 C.3     2  ASP2        0.0138
     54 C          -9.2279   -8.4268  -10.7295 C.ar    1  UNK1       -0.0600
     55 C         -11.3454   -7.3118  -10.8104 C.ar    1  UNK1       -0.0600
     56 C         -17.4929   -5.3852    2.0117 C.ar    3  UNK3        0.0189
     57 CE3       -13.7697   -5.9534    4.7836 C.ar    5  TRP5       -0.0523
     58 C          -9.9780   -7.3052  -11.0524 C.ar    1  UNK1       -0.0616
     59 CZ2       -13.7571   -3.7218    3.0533 C.ar    5  TRP5       -0.0378
     60 CG        -10.7933  -13.1157    0.4110 C.2     6  ASP6        0.0440
     61 CZ3       -14.5666   -4.8340    5.0527 C.ar    5  TRP5       -0.0611
     62 C         -18.1718   -4.9644    3.1474 C.ar    3  UNK3       -0.0493
     63 CH2       -14.5468   -3.7300    4.2056 C.ar    5  TRP5       -0.0598
     64 CG        -18.4256   -6.6286   -2.1741 C.2     2  ASP2        0.0440
     65 C         -18.2143   -3.5472    3.2926 C.ar    3  UNK3       -0.0544
     66 C         -17.6027   -2.9076    2.2425 C.ar    3  UNK3       -0.0240
     67 H         -13.3671  -10.9103   -2.1606 H       1  UNK1        0.1495
     68 H         -14.4134   -8.5076    2.9465 H       5  TRP5        0.1495
     69 H         -16.1678   -9.1845    1.3308 H       4  LEU4        0.1495
     70 H         -11.0833  -10.9991    1.7508 H       6  ASP6        0.1495
     71 H         -15.1570   -9.2984   -2.0625 H       2  ASP2        0.1495
     72 H         -16.5119   -5.8739   -0.1771 H       3  UNK3        0.1498
     73 HE1       -12.0535   -4.5529    0.9075 H       5  TRP5        0.1653
     74 H         -13.2426   -9.3038   -7.3699 H       1  UNK1        0.0480
     75 H         -14.5606  -10.4895   -7.2451 H       1  UNK1        0.0480
     76 H         -12.3749  -12.9301   -7.5827 H       1  UNK1        0.0480
     77 H         -11.0919  -12.5479   -6.4428 H       1  UNK1        0.0480
     78 H         -13.5985  -11.7872   -9.1313 H       1  UNK1        0.0479
     79 H         -13.8686  -10.1600   -9.6554 H       1  UNK1        0.0479
     80 H         -10.2590  -10.7406   -7.8072 H       1  UNK1        0.0479
     81 H         -10.3634  -12.1994   -8.8219 H       1  UNK1        0.0479
     82 H         -14.4711  -10.4482   -4.3417 H       1  UNK1        0.0381
     83 H         -13.8408   -9.1378   -5.3387 H       1  UNK1        0.0381
     84 H         -11.9897   -8.7562   -3.6327 H       1  UNK1        0.0599
     85 HA        -16.7742   -9.9119    4.1598 H       4  LEU4        0.0594
     86 HB1       -17.9277  -11.3022    2.6273 H       4  LEU4        0.0290
     87 HB2       -16.7120  -12.2642    3.4496 H       4  LEU4        0.0290
     88 HA        -12.2079  -10.3529    3.6185 H       5  TRP5        0.0598
     89 HG        -16.4491  -11.2127    0.5828 H       4  LEU4        0.0296
     90 HB1       -10.6256   -8.4798    3.3222 H       5  TRP5        0.0337
     91 HB2       -11.6727   -8.2109    4.7051 H       5  TRP5        0.0337
     92 HA        -12.7133  -11.4477   -0.1709 H       6  ASP6        0.0598
     93 HA        -15.7382   -6.4249   -2.1379 H       2  ASP2        0.0598
     94 HD21      -14.7720  -13.2972    2.0680 H       4  LEU4        0.0232
     95 HD22      -14.2310  -11.6945    1.5560 H       4  LEU4        0.0232
     96 HD23      -14.6480  -12.8958    0.3474 H       4  LEU4        0.0232
     97 HD11      -17.2133  -14.0065    1.5318 H       4  LEU4        0.0232
     98 HD12      -16.9756  -13.4842   -0.1443 H       4  LEU4        0.0232
     99 HD13      -18.3151  -12.8230    0.7983 H       4  LEU4        0.0232
    100 H         -18.2642   -7.1933    1.1687 H       3  UNK3        0.0651
    101 H          -9.2235  -10.4073   -9.9457 H       1  UNK1        0.0636
    102 H         -13.0230   -8.3577  -10.0511 H       1  UNK1        0.0636
    103 HB1        -9.6582  -11.5323   -0.4864 H       6  ASP6        0.0348
    104 HB2       -10.7907  -12.3188   -1.5955 H       6  ASP6        0.0348
    105 HD1       -10.9066   -6.7597    1.1328 H       5  TRP5        0.0810
    106 HB1       -17.8361   -8.6331   -2.7345 H       2  ASP2        0.0348
    107 HB2       -17.3359   -7.3811   -3.8810 H       2  ASP2        0.0348
    108 H          -8.1571   -8.4398  -10.9122 H       1  UNK1        0.0618
    109 H         -11.9462   -6.4406  -11.0575 H       1  UNK1        0.0618
    110 HE3       -13.8107   -6.8184    5.4388 H       5  TRP5        0.0624
    111 H          -9.5020   -6.4315  -11.4870 H       1  UNK1        0.0618
    112 HZ2       -13.7774   -2.8793    2.3705 H       5  TRP5        0.0638
    113 HZ3       -15.2250   -4.8427    5.9169 H       5  TRP5        0.0618
    114 H         -18.6122   -5.6529    3.8579 H       3  UNK3        0.0626
    115 HH2       -15.1857   -2.8783    4.4203 H       5  TRP5        0.0618
    116 H         -18.6813   -3.0311    4.1198 H       3  UNK3        0.0623
    117 H         -17.4990   -1.8451    2.0791 H       3  UNK3        0.0693
@<TRIPOS>BOND
     1     1    56   ar
     2     1    66   ar
     3     2    26    2
     4     3    35    2
     5     4    37    2
     6     5    39    2
     7     6    40    2
     8     7    48    2
     9     8    52    2
    10     9    60   ar
    11    10    60   ar
    12    11    64   ar
    13    12    64   ar
    14    13    22    1
    15    13    23    1
    16    14    24    1
    17    14    25    1
    18    14    32    1
    19    15    28    1
    20    15    40   am
    21    16    35   am
    22    16    31    1
    23    17    48   am
    24    17    29    1
    25    18    39   am
    26    18    36    1
    27    19    37   am
    28    19    41    1
    29    20    52   am
    30    20    44    1
    31    21    50   ar
    32    21    51   ar
    33    22    24    1
    34    23    25    1
    35    26    27    1
    36    26    13   am
    37    28    37    1
    38    28    27    1
    39    29    35    1
    40    29    30    1
    41    30    33    1
    42    31    39    1
    43    31    34    1
    44    32    45   ar
    45    32    46   ar
    46    33    43    1
    47    33    42    1
    48    34    38    1
    49    36    40    1
    50    36    49    1
    51    38    47   ar
    52    38    50   ar
    53    41    52    1
    54    41    53    1
    55    44    48    1
    56    44    56    1
    57    45    54   ar
    58    46    55   ar
    59    47    57   ar
    60    47    51   ar
    61    49    60    1
    62    51    59   ar
    63    53    64    1
    64    54    58   ar
    65    55    58   ar
    66    56    62   ar
    67    57    61   ar
    68    59    63   ar
    69    61    63   ar
    70    62    65   ar
    71    65    66   ar
    72    15    67    1
    73    16    68    1
    74    17    69    1
    75    18    70    1
    76    19    71    1
    77    20    72    1
    78    21    73    1
    79    22    74    1
    80    22    75    1
    81    23    76    1
    82    23    77    1
    83    24    78    1
    84    24    79    1
    85    25    80    1
    86    25    81    1
    87    27    82    1
    88    27    83    1
    89    28    84    1
    90    29    85    1
    91    30    86    1
    92    30    87    1
    93    31    88    1
    94    33    89    1
    95    34    90    1
    96    34    91    1
    97    36    92    1
    98    41    93    1
    99    42    94    1
   100    42    95    1
   101    42    96    1
   102    43    97    1
   103    43    98    1
   104    43    99    1
   105    44   100    1
   106    45   101    1
   107    46   102    1
   108    49   103    1
   109    49   104    1
   110    50   105    1
   111    53   106    1
   112    53   107    1
   113    54   108    1
   114    55   109    1
   115    57   110    1
   116    58   111    1
   117    59   112    1
   118    61   113    1
   119    62   114    1
   120    63   115    1
   121    65   116    1
   122    66   117    1
@<TRIPOS>MOLECULE
123882
 117 122 0 0 0
SMALL
GASTEIGER

@<TRIPOS>ATOM
      1 S         -18.8643   -4.5427    1.5867 S.2     3  UNK3       -0.0993
      2 O         -12.8035   -7.7576   -5.7641 O.2     1  UNK1       -0.2755
      3 O         -14.4118  -11.2505    4.3416 O.2     4  LEU4       -0.2738
      4 O         -13.5214   -6.8753   -2.2253 O.2     1  UNK1       -0.2737
      5 O         -13.4196   -9.2401    0.8159 O.2     5  TRP5       -0.2738
      6 O         -10.5663   -9.2451   -1.5870 O.2     6  ASP6       -0.2738
      7 O         -17.5593   -7.6619    3.6647 O.2     3  UNK3       -0.2734
      8 O         -16.8743   -9.0420   -0.4488 O.2     2  ASP2       -0.2737
      9 OD1       -10.6092  -12.8761    1.6990 O.co2   6  ASP6       -0.5497
     10 OD2       -11.0300  -14.2800   -0.0616 O.co2   6  ASP6       -0.5497
     11 OD1       -16.6112   -6.9246   -5.0141 O.co2   2  ASP2       -0.5497
     12 OD2       -18.7411   -6.3103   -4.4906 O.co2   2  ASP2       -0.5497
     13 N         -14.2909   -9.2116   -6.7227 N.am    1  UNK1       -0.2984
     14 N         -16.5647   -9.8072   -8.5177 N.pl3   1  UNK1       -0.3269
     15 N         -12.6739   -9.9794   -2.1623 N.am    1  UNK1       -0.3020
     16 N         -13.9892   -9.2159    3.3599 N.am    5  TRP5       -0.3022
     17 N         -16.4475   -9.0470    2.2464 N.am    4  LEU4       -0.3022
     18 N         -11.4511  -10.3832    1.0760 N.am    6  ASP6       -0.3021
     19 N         -15.2005   -8.3537   -2.6917 N.am    2  ASP2       -0.3021
     20 N         -16.4910   -6.8895    0.1810 N.am    3  UNK3       -0.2984
     21 NE1       -11.5590   -8.2422    7.1741 N.ar    5  TRP5       -0.3604
     22 C         -14.8908  -10.5457   -6.8389 C.3     1  UNK1        0.0304
     23 C         -14.7395   -8.2242   -7.7110 C.3     1  UNK1        0.0304
     24 C         -15.4899  -10.7812   -8.2372 C.3     1  UNK1        0.0280
     25 C         -16.2266   -8.4048   -8.0849 C.3     1  UNK1        0.0280
     26 C         -13.4642   -8.7929   -5.6921 C.2     1  UNK1        0.2179
     27 C         -13.3404   -9.7280   -4.5051 C.3     1  UNK1        0.0510
     28 C         -12.8746   -9.0005   -3.2402 C.3     1  UNK1        0.1076
     29 CA        -16.2620  -10.1220    3.2299 C.3     4  LEU4        0.0997
     30 CB        -16.9015  -11.4479    2.7670 C.3     4  LEU4       -0.0236
     31 CA        -12.5709   -9.4595    3.0821 C.3     5  TRP5        0.1034
     32 C         -17.9165  -10.1540   -8.3274 C.ar    1  UNK1        0.0298
     33 CG        -16.4300  -12.0428    1.4188 C.3     4  LEU4       -0.0446
     34 CB        -11.6826   -8.2786    3.4863 C.3     5  TRP5        0.0013
     35 C         -14.7993  -10.2861    3.6854 C.2     4  LEU4        0.2340
     36 CA        -11.5763  -11.0210   -0.2370 C.3     6  ASP6        0.1045
     37 C         -13.8809   -7.9470   -2.7139 C.2     1  UNK1        0.2344
     38 CG        -11.7258   -7.9889    4.9638 C.ar    5  TRP5       -0.0201
     39 C         -12.5276   -9.6719    1.5535 C.2     5  TRP5        0.2343
     40 C         -11.5317   -9.9762   -1.3773 C.2     6  ASP6        0.2343
     41 CA        -16.2632   -7.4779   -2.2175 C.3     2  ASP2        0.1045
     42 CD2       -15.0056  -12.5930    1.4540 C.3     4  LEU4       -0.0626
     43 CD1       -17.3812  -13.1679    0.9927 C.3     4  LEU4       -0.0626
     44 C         -17.3905   -6.9091    1.3320 C.3     3  UNK3        0.1311
     45 C         -18.9362   -9.2020   -8.5283 C.ar    1  UNK1       -0.0407
     46 C         -18.3473  -11.4386   -7.9560 C.ar    1  UNK1       -0.0407
     47 CD2       -12.2368   -6.8124    5.6066 C.ar    5  TRP5        0.0029
     48 C         -17.1019   -7.8699    2.5372 C.2     3  UNK3        0.2390
     49 CB        -10.4661  -12.0351   -0.4857 C.3     6  ASP6        0.0138
     50 CD1       -11.2988   -8.8350    5.9701 C.ar    5  TRP5        0.0060
     51 CE2       -12.1206   -7.0018    6.9853 C.ar    5  TRP5        0.0467
     52 C         -16.5569   -7.8923   -0.7602 C.2     2  ASP2        0.2345
     53 CB        -17.5684   -7.6700   -2.9843 C.3     2  ASP2        0.0138
     54 C         -20.2900   -9.4922   -8.3175 C.ar    1  UNK1       -0.0600
     55 C         -19.7022  -11.7416   -7.7503 C.ar    1  UNK1       -0.0600
     56 C         -17.4546   -5.4868    1.8530 C.ar    3  UNK3        0.0189
     57 CE3       -12.8035   -5.6057    5.1455 C.ar    5  TRP5       -0.0523
     58 C         -20.6741  -10.7651   -7.9226 C.ar    1  UNK1       -0.0616
     59 CZ2       -12.5433   -6.0502    7.9229 C.ar    5  TRP5       -0.0378
     60 CG        -10.7237  -13.1810    0.4738 C.2     6  ASP6        0.0440
     61 CZ3       -13.2291   -4.6420    6.0681 C.ar    5  TRP5       -0.0611
     62 C         -16.4933   -4.7666    2.5417 C.ar    3  UNK3       -0.0493
     63 CH2       -13.1003   -4.8637    7.4368 C.ar    5  TRP5       -0.0598
     64 CG        -17.6345   -6.8852   -4.2820 C.2     2  ASP2        0.0440
     65 C         -16.9264   -3.4478    2.8633 C.ar    3  UNK3       -0.0544
     66 C         -18.1977   -3.1964    2.4005 C.ar    3  UNK3       -0.0240
     67 H         -13.5092  -10.2981   -1.6838 H       1  UNK1        0.1495
     68 H         -14.4272   -8.5710    2.7077 H       5  TRP5        0.1495
     69 H         -16.1730   -9.2145    1.2758 H       4  LEU4        0.1495
     70 H         -11.0246  -11.0266    1.7546 H       6  ASP6        0.1495
     71 H         -15.4553   -9.3089   -2.8860 H       2  ASP2        0.1495
     72 H         -16.2458   -5.9759   -0.1835 H       3  UNK3        0.1498
     73 HE1       -11.3825   -8.6616    8.0750 H       5  TRP5        0.1653
     74 H         -15.6716  -10.6298   -6.0744 H       1  UNK1        0.0480
     75 H         -14.1195  -11.2932   -6.6273 H       1  UNK1        0.0480
     76 H         -14.1110   -8.3580   -8.5998 H       1  UNK1        0.0480
     77 H         -14.5722   -7.2059   -7.3439 H       1  UNK1        0.0480
     78 H         -14.7063  -10.6350   -8.9928 H       1  UNK1        0.0479
     79 H         -15.7944  -11.8226   -8.3633 H       1  UNK1        0.0479
     80 H         -16.8255   -8.1383   -7.2080 H       1  UNK1        0.0479
     81 H         -16.4674   -7.7112   -8.8986 H       1  UNK1        0.0479
     82 H         -12.6082  -10.4994   -4.7757 H       1  UNK1        0.0381
     83 H         -14.2883  -10.2418   -4.3236 H       1  UNK1        0.0381
     84 H         -11.9329   -8.4779   -3.4437 H       1  UNK1        0.0599
     85 HA        -16.7886   -9.8293    4.1473 H       4  LEU4        0.0594
     86 HB1       -17.9828  -11.2702    2.6941 H       4  LEU4        0.0290
     87 HB2       -16.7709  -12.2053    3.5517 H       4  LEU4        0.0290
     88 HA        -12.2508  -10.3837    3.5770 H       5  TRP5        0.0598
     89 HG        -16.4777  -11.2750    0.6424 H       4  LEU4        0.0296
     90 HB1       -11.9759   -7.3829    2.9251 H       5  TRP5        0.0337
     91 HB2       -10.6420   -8.4845    3.2035 H       5  TRP5        0.0337
     92 HA        -12.5491  -11.5304   -0.2550 H       6  ASP6        0.0598
     93 HA        -15.9336   -6.4341   -2.2564 H       2  ASP2        0.0598
     94 HD21      -14.8818  -13.3354    2.2491 H       4  LEU4        0.0232
     95 HD22      -14.2760  -11.7997    1.6083 H       4  LEU4        0.0232
     96 HD23      -14.7508  -13.0739    0.5028 H       4  LEU4        0.0232
     97 HD11      -17.3720  -13.9910    1.7153 H       4  LEU4        0.0232
     98 HD12      -17.0927  -13.5715    0.0158 H       4  LEU4        0.0232
     99 HD13      -18.4087  -12.7997    0.9066 H       4  LEU4        0.0232
    100 H         -18.3750   -7.2205    0.9561 H       3  UNK3        0.0651
    101 H         -18.6901   -8.1878   -8.8323 H       1  UNK1        0.0636
    102 H         -17.6471  -12.2446   -7.7762 H       1  UNK1        0.0636
    103 HB1        -9.4735  -11.6103   -0.2980 H       6  ASP6        0.0348
    104 HB2       -10.4870  -12.3923   -1.5222 H       6  ASP6        0.0348
    105 HD1       -10.8688   -9.8274    5.9254 H       5  TRP5        0.0810
    106 HB1       -18.4105   -7.3440   -2.3580 H       2  ASP2        0.0348
    107 HB2       -17.7432   -8.7288   -3.2144 H       2  ASP2        0.0348
    108 H         -21.0305   -8.7072   -8.4417 H       1  UNK1        0.0618
    109 H         -19.9870  -12.7404   -7.4327 H       1  UNK1        0.0618
    110 HE3       -12.9159   -5.4259    4.0806 H       5  TRP5        0.0624
    111 H         -21.7195  -10.9881   -7.7363 H       1  UNK1        0.0618
    112 HZ2       -12.4527   -6.2269    8.9888 H       5  TRP5        0.0638
    113 HZ3       -13.6708   -3.7168    5.7076 H       5  TRP5        0.0618
    114 H         -15.5271   -5.1763    2.8144 H       3  UNK3        0.0626
    115 HH2       -13.4447   -4.1077    8.1376 H       5  TRP5        0.0618
    116 H         -16.3346   -2.7230    3.4071 H       3  UNK3        0.0623
    117 H         -18.7719   -2.2861    2.4989 H       3  UNK3        0.0693
@<TRIPOS>BOND
     1     1    56   ar
     2     1    66   ar
     3     2    26    2
     4     3    35    2
     5     4    37    2
     6     5    39    2
     7     6    40    2
     8     7    48    2
     9     8    52    2
    10     9    60   ar
    11    10    60   ar
    12    11    64   ar
    13    12    64   ar
    14    13    22    1
    15    13    23    1
    16    14    24    1
    17    14    25    1
    18    14    32    1
    19    15    28    1
    20    15    40   am
    21    16    35   am
    22    16    31    1
    23    17    48   am
    24    17    29    1
    25    18    39   am
    26    18    36    1
    27    19    37   am
    28    19    41    1
    29    20    52   am
    30    20    44    1
    31    21    50   ar
    32    21    51   ar
    33    22    24    1
    34    23    25    1
    35    26    27    1
    36    26    13   am
    37    28    37    1
    38    28    27    1
    39    29    35    1
    40    29    30    1
    41    30    33    1
    42    31    39    1
    43    31    34    1
    44    32    45   ar
    45    32    46   ar
    46    33    43    1
    47    33    42    1
    48    34    38    1
    49    36    40    1
    50    36    49    1
    51    38    47   ar
    52    38    50   ar
    53    41    52    1
    54    41    53    1
    55    44    48    1
    56    44    56    1
    57    45    54   ar
    58    46    55   ar
    59    47    57   ar
    60    47    51   ar
    61    49    60    1
    62    51    59   ar
    63    53    64    1
    64    54    58   ar
    65    55    58   ar
    66    56    62   ar
    67    57    61   ar
    68    59    63   ar
    69    61    63   ar
    70    62    65   ar
    71    65    66   ar
    72    15    67    1
    73    16    68    1
    74    17    69    1
    75    18    70    1
    76    19    71    1
    77    20    72    1
    78    21    73    1
    79    22    74    1
    80    22    75    1
    81    23    76    1
    82    23    77    1
    83    24    78    1
    84    24    79    1
    85    25    80    1
    86    25    81    1
    87    27    82    1
    88    27    83    1
    89    28    84    1
    90    29    85    1
    91    30    86    1
    92    30    87    1
    93    31    88    1
    94    33    89    1
    95    34    90    1
    96    34    91    1
    97    36    92    1
    98    41    93    1
    99    42    94    1
   100    42    95    1
   101    42    96    1
   102    43    97    1
   103    43    98    1
   104    43    99    1
   105    44   100    1
   106    45   101    1
   107    46   102    1
   108    49   103    1
   109    49   104    1
   110    50   105    1
   111    53   106    1
   112    53   107    1
   113    54   108    1
   114    55   109    1
   115    57   110    1
   116    58   111    1
   117    59   112    1
   118    61   113    1
   119    62   114    1
   120    63   115    1
   121    65   116    1
   122    66   117    1
@<TRIPOS>MOLECULE
123882
 117 122 0 0 0
SMALL
GASTEIGER

@<TRIPOS>ATOM
      1 S         -19.0099   -4.8161    2.3200 S.2     3  UNK3       -0.0993
      2 O         -11.3254  -10.7009   -5.0111 O.2     1  UNK1       -0.2755
      3 O         -14.2609  -11.1824    4.3952 O.2     4  LEU4       -0.2738
      4 O         -13.5435   -6.8329   -2.6914 O.2     1  UNK1       -0.2737
      5 O         -13.4298   -9.2115    0.8529 O.2     5  TRP5       -0.2738
      6 O         -10.7990   -9.1424   -1.4189 O.2     6  ASP6       -0.2738
      7 O         -17.0918   -7.4701    3.8162 O.2     3  UNK3       -0.2734
      8 O         -16.9476   -9.0256   -0.3160 O.2     2  ASP2       -0.2737
      9 OD1       -10.6840  -13.0443    1.5987 O.co2   6  ASP6       -0.5497
     10 OD2       -11.2474  -14.3470   -0.1964 O.co2   6  ASP6       -0.5497
     11 OD1       -16.4351   -7.7495   -5.0711 O.co2   2  ASP2       -0.5497
     12 OD2       -18.5001   -6.8210   -4.7985 O.co2   2  ASP2       -0.5497
     13 N         -13.0593  -11.4187   -6.3193 N.am    1  UNK1       -0.2984
     14 N         -13.3435  -11.8265   -9.1748 N.pl3   1  UNK1       -0.3269
     15 N         -12.7151  -10.1135   -2.2572 N.am    1  UNK1       -0.3020
     16 N         -13.8861   -9.1460    3.4056 N.am    5  TRP5       -0.3022
     17 N         -16.3776   -9.0171    2.3172 N.am    4  LEU4       -0.3022
     18 N         -11.5355  -10.4805    1.0686 N.am    6  ASP6       -0.3021
     19 N         -15.1335   -8.4735   -2.4730 N.am    2  ASP2       -0.3021
     20 N         -16.5298   -6.8553    0.2099 N.am    3  UNK3       -0.2984
     21 NE1        -8.1876   -8.2871    2.2275 N.ar    5  TRP5       -0.3604
     22 C         -14.3274  -11.0942   -6.9954 C.3     1  UNK1        0.0304
     23 C         -12.2132  -12.4027   -6.9970 C.3     1  UNK1        0.0304
     24 C         -14.5317  -11.9052   -8.2910 C.3     1  UNK1        0.0280
     25 C         -12.0396  -12.0525   -8.4834 C.3     1  UNK1        0.0280
     26 C         -12.5184  -10.6376   -5.3029 C.2     1  UNK1        0.2179
     27 C         -13.4926   -9.7254   -4.5797 C.3     1  UNK1        0.0510
     28 C         -12.9055   -9.1089   -3.3062 C.3     1  UNK1        0.1076
     29 CA        -16.1504  -10.0815    3.3067 C.3     4  LEU4        0.0997
     30 CB        -16.7995  -11.4132    2.8719 C.3     4  LEU4       -0.0236
     31 CA        -12.4653   -9.3527    3.0741 C.3     5  TRP5        0.1034
     32 C         -13.2957  -10.9210  -10.2428 C.ar    1  UNK1        0.0298
     33 CG        -16.3539  -12.0262    1.5223 C.3     4  LEU4       -0.0446
     34 CB        -11.6827   -8.0649    3.3548 C.3     5  TRP5        0.0013
     35 C         -14.6722  -10.2305    3.7377 C.2     4  LEU4        0.2340
     36 CA        -11.7058  -11.0929   -0.2482 C.3     6  ASP6        0.1045
     37 C         -13.8669   -8.0166   -2.7813 C.2     1  UNK1        0.2344
     38 CG        -10.1930   -8.1633    3.1893 C.ar    5  TRP5       -0.0201
     39 C         -12.5251   -9.6676    1.5624 C.2     5  TRP5        0.2343
     40 C         -11.6742  -10.0047   -1.3472 C.2     6  ASP6        0.2343
     41 CA        -16.2321   -7.5820   -2.1423 C.3     2  ASP2        0.1045
     42 CD2       -14.9581  -12.6447    1.5678 C.3     4  LEU4       -0.0626
     43 CD1       -17.3560  -13.1032    1.0884 C.3     4  LEU4       -0.0626
     44 C         -17.3301   -6.8721    1.4339 C.3     3  UNK3        0.1311
     45 C         -12.2180  -10.9485  -11.1500 C.ar    1  UNK1       -0.0407
     46 C         -14.2905   -9.9641  -10.4922 C.ar    1  UNK1       -0.0407
     47 CD2        -9.1988   -8.2381    4.2133 C.ar    5  TRP5        0.0029
     48 C         -16.8715   -7.7707    2.6403 C.2     3  UNK3        0.2390
     49 CB        -10.6128  -12.1083   -0.5515 C.3     6  ASP6        0.0138
     50 CD1        -9.5241   -8.1546    1.9829 C.ar    5  TRP5        0.0060
     51 CE2        -7.9535   -8.2991    3.5783 C.ar    5  TRP5        0.0467
     52 C         -16.5974   -7.9006   -0.6800 C.2     2  ASP2        0.2345
     53 CB        -17.4919   -7.8597   -2.9585 C.3     2  ASP2        0.0138
     54 C         -12.1189  -10.0531  -12.2216 C.ar    1  UNK1       -0.0600
     55 C         -14.2042   -9.0685  -11.5672 C.ar    1  UNK1       -0.0600
     56 C         -17.4599   -5.4408    1.9153 C.ar    3  UNK3        0.0189
     57 CE3        -9.2290   -8.2530    5.6240 C.ar    5  TRP5       -0.0523
     58 C         -13.1152   -9.1087  -12.4293 C.ar    1  UNK1       -0.0616
     59 CZ2        -6.7450   -8.3695    4.2869 C.ar    5  TRP5       -0.0378
     60 CG        -10.8706  -13.2852    0.3694 C.2     6  ASP6        0.0440
     61 CZ3        -8.0305   -8.3174    6.3424 C.ar    5  TRP5       -0.0611
     62 C         -16.4734   -4.4884    2.1074 C.ar    3  UNK3       -0.0493
     63 CH2        -6.8058   -8.3729    5.6829 C.ar    5  TRP5       -0.0598
     64 CG        -17.4545   -7.4152   -4.4111 C.2     2  ASP2        0.0440
     65 C         -16.9939   -3.2535    2.5921 C.ar    3  UNK3       -0.0544
     66 C         -18.3582   -3.3020    2.7655 C.ar    3  UNK3       -0.0240
     67 H         -13.5160  -10.6509   -1.9551 H       1  UNK1        0.1495
     68 H         -14.3522   -8.5317    2.7417 H       5  TRP5        0.1495
     69 H         -16.2256   -9.2281    1.3285 H       4  LEU4        0.1495
     70 H         -11.0900  -11.1147    1.7409 H       6  ASP6        0.1495
     71 H         -15.3414   -9.4598   -2.5033 H       2  ASP2        0.1495
     72 H         -16.3269   -5.9505   -0.1973 H       3  UNK3        0.1498
     73 HE1        -7.4785   -8.3606    1.5131 H       5  TRP5        0.1653
     74 H         -14.3223  -10.0233   -7.2262 H       1  UNK1        0.0480
     75 H         -15.1484  -11.2905   -6.2976 H       1  UNK1        0.0480
     76 H         -12.7040  -13.3779   -6.8894 H       1  UNK1        0.0480
     77 H         -11.2329  -12.4901   -6.5171 H       1  UNK1        0.0480
     78 H         -14.6714  -12.9624   -8.0282 H       1  UNK1        0.0479
     79 H         -15.4626  -11.6245   -8.7926 H       1  UNK1        0.0479
     80 H         -11.4203  -11.1471   -8.5353 H       1  UNK1        0.0479
     81 H         -11.5027  -12.8669   -8.9828 H       1  UNK1        0.0479
     82 H         -14.3896  -10.3080   -4.3384 H       1  UNK1        0.0381
     83 H         -13.7774   -8.9242   -5.2717 H       1  UNK1        0.0381
     84 H         -11.9453   -8.6267   -3.5254 H       1  UNK1        0.0599
     85 HA        -16.6621   -9.7781    4.2300 H       4  LEU4        0.0594
     86 HB1       -17.8822  -11.2319    2.8157 H       4  LEU4        0.0290
     87 HB2       -16.6583  -12.1603    3.6637 H       4  LEU4        0.0290
     88 HA        -12.0701  -10.2126    3.6259 H       5  TRP5        0.0598
     89 HG        -16.3574  -11.2579    0.7449 H       4  LEU4        0.0296
     90 HB1       -11.9013   -7.7373    4.3794 H       5  TRP5        0.0337
     91 HB2       -12.0500   -7.2574    2.7064 H       5  TRP5        0.0337
     92 HA        -12.6896  -11.5783   -0.2495 H       6  ASP6        0.0598
     93 HA        -15.9235   -6.5369   -2.2476 H       2  ASP2        0.0598
     94 HD21      -14.8811  -13.4021    2.3545 H       4  LEU4        0.0232
     95 HD22      -14.1930  -11.8900    1.7431 H       4  LEU4        0.0232
     96 HD23      -14.7161  -13.1263    0.6134 H       4  LEU4        0.0232
     97 HD11      -17.3948  -13.9253    1.8117 H       4  LEU4        0.0232
     98 HD12      -17.0798  -13.5221    0.1143 H       4  LEU4        0.0232
     99 HD13      -18.3632  -12.6846    0.9926 H       4  LEU4        0.0232
    100 H         -18.3189   -7.2590    1.1492 H       3  UNK3        0.0651
    101 H         -11.4279  -11.6851  -11.0326 H       1  UNK1        0.0636
    102 H         -15.1499   -9.8564   -9.8376 H       1  UNK1        0.0636
    103 HB1        -9.6126  -11.7008   -0.3631 H       6  ASP6        0.0348
    104 HB2       -10.6499  -12.4283   -1.5996 H       6  ASP6        0.0348
    105 HD1        -9.8890   -8.1061    0.9625 H       5  TRP5        0.0810
    106 HB1       -18.3416   -7.3600   -2.4739 H       2  ASP2        0.0348
    107 HB2       -17.7265   -8.9316   -2.9572 H       2  ASP2        0.0348
    108 H         -11.2608  -10.0982  -12.8847 H       1  UNK1        0.0618
    109 H         -14.9888   -8.3304  -11.7113 H       1  UNK1        0.0618
    110 HE3       -10.1797   -8.2178    6.1502 H       5  TRP5        0.0624
    111 H         -13.0432   -8.4049  -13.2525 H       1  UNK1        0.0618
    112 HZ2        -5.7940   -8.4248    3.7683 H       5  TRP5        0.0638
    113 HZ3        -8.0597   -8.3299    7.4309 H       5  TRP5        0.0618
    114 H         -15.4221   -4.6731    1.9146 H       3  UNK3        0.0626
    115 HH2        -5.8860   -8.4296    6.2567 H       5  TRP5        0.0618
    116 H         -16.3947   -2.3792    2.8119 H       3  UNK3        0.0623
    117 H         -19.0086   -2.5195    3.1311 H       3  UNK3        0.0693
@<TRIPOS>BOND
     1     1    56   ar
     2     1    66   ar
     3     2    26    2
     4     3    35    2
     5     4    37    2
     6     5    39    2
     7     6    40    2
     8     7    48    2
     9     8    52    2
    10     9    60   ar
    11    10    60   ar
    12    11    64   ar
    13    12    64   ar
    14    13    22    1
    15    13    23    1
    16    14    24    1
    17    14    25    1
    18    14    32    1
    19    15    28    1
    20    15    40   am
    21    16    35   am
    22    16    31    1
    23    17    48   am
    24    17    29    1
    25    18    39   am
    26    18    36    1
    27    19    37   am
    28    19    41    1
    29    20    52   am
    30    20    44    1
    31    21    50   ar
    32    21    51   ar
    33    22    24    1
    34    23    25    1
    35    26    27    1
    36    26    13   am
    37    28    37    1
    38    28    27    1
    39    29    35    1
    40    29    30    1
    41    30    33    1
    42    31    39    1
    43    31    34    1
    44    32    45   ar
    45    32    46   ar
    46    33    43    1
    47    33    42    1
    48    34    38    1
    49    36    40    1
    50    36    49    1
    51    38    47   ar
    52    38    50   ar
    53    41    52    1
    54    41    53    1
    55    44    48    1
    56    44    56    1
    57    45    54   ar
    58    46    55   ar
    59    47    57   ar
    60    47    51   ar
    61    49    60    1
    62    51    59   ar
    63    53    64    1
    64    54    58   ar
    65    55    58   ar
    66    56    62   ar
    67    57    61   ar
    68    59    63   ar
    69    61    63   ar
    70    62    65   ar
    71    65    66   ar
    72    15    67    1
    73    16    68    1
    74    17    69    1
    75    18    70    1
    76    19    71    1
    77    20    72    1
    78    21    73    1
    79    22    74    1
    80    22    75    1
    81    23    76    1
    82    23    77    1
    83    24    78    1
    84    24    79    1
    85    25    80    1
    86    25    81    1
    87    27    82    1
    88    27    83    1
    89    28    84    1
    90    29    85    1
    91    30    86    1
    92    30    87    1
    93    31    88    1
    94    33    89    1
    95    34    90    1
    96    34    91    1
    97    36    92    1
    98    41    93    1
    99    42    94    1
   100    42    95    1
   101    42    96    1
   102    43    97    1
   103    43    98    1
   104    43    99    1
   105    44   100    1
   106    45   101    1
   107    46   102    1
   108    49   103    1
   109    49   104    1
   110    50   105    1
   111    53   106    1
   112    53   107    1
   113    54   108    1
   114    55   109    1
   115    57   110    1
   116    58   111    1
   117    59   112    1
   118    61   113    1
   119    62   114    1
   120    63   115    1
   121    65   116    1
   122    66   117    1
@<TRIPOS>MOLECULE
123882
 117 122 0 0 0
SMALL
GASTEIGER

@<TRIPOS>ATOM
      1 S         -18.2181   -5.0008    3.6784 S.2     3  UNK3       -0.0993
      2 O         -11.5383  -10.7378   -5.2183 O.2     1  UNK1       -0.2755
      3 O         -14.2492  -11.3164    4.3998 O.2     4  LEU4       -0.2738
      4 O         -13.6858   -6.8729   -3.1828 O.2     1  UNK1       -0.2737
      5 O         -13.3780   -9.0679    0.8796 O.2     5  TRP5       -0.2738
      6 O         -10.9224   -9.1201   -1.5009 O.2     6  ASP6       -0.2738
      7 O         -16.7081   -7.5468    4.0701 O.2     3  UNK3       -0.2734
      8 O         -17.2464   -8.9664   -0.2044 O.2     2  ASP2       -0.2737
      9 OD1       -10.6779  -12.8876    1.6397 O.co2   6  ASP6       -0.5497
     10 OD2       -10.8696  -14.3932   -0.0696 O.co2   6  ASP6       -0.5497
     11 OD1       -19.0380   -8.6233   -3.3390 O.co2   2  ASP2       -0.5497
     12 OD2       -16.9914   -9.6367   -3.4989 O.co2   2  ASP2       -0.5497
     13 N         -13.3478  -11.4739   -6.3928 N.am    1  UNK1       -0.2984
     14 N         -14.6293  -13.6977   -7.8157 N.pl3   1  UNK1       -0.3269
     15 N         -12.7953  -10.1791   -2.3000 N.am    1  UNK1       -0.3020
     16 N         -13.9245   -9.2801    3.4134 N.am    5  TRP5       -0.3022
     17 N         -16.4311   -9.1042    2.4483 N.am    4  LEU4       -0.3022
     18 N         -11.5417  -10.4342    1.0471 N.am    6  ASP6       -0.3021
     19 N         -14.9994   -8.4433   -2.1468 N.am    2  ASP2       -0.3021
     20 N         -16.5767   -6.9286    0.5262 N.am    3  UNK3       -0.2984
     21 NE1        -8.0896   -8.6171    3.5908 N.ar    5  TRP5       -0.3604
     22 C         -12.5540  -12.5550   -6.9808 C.3     1  UNK1        0.0304
     23 C         -14.7459  -11.3798   -6.8374 C.3     1  UNK1        0.0304
     24 C         -13.2546  -13.2664   -8.1476 C.3     1  UNK1        0.0280
     25 C         -15.4019  -12.7653   -6.9424 C.3     1  UNK1        0.0280
     26 C         -12.7561  -10.7020   -5.4020 C.2     1  UNK1        0.2179
     27 C         -13.6830   -9.8318   -4.5793 C.3     1  UNK1        0.0510
     28 C         -12.9961   -9.2004   -3.3709 C.3     1  UNK1        0.1076
     29 CA        -16.1905  -10.2424    3.3564 C.3     4  LEU4        0.0997
     30 CB        -16.6971  -11.5135    2.6472 C.3     4  LEU4       -0.0236
     31 CA        -12.4962   -9.4395    3.1012 C.3     5  TRP5        0.1034
     32 C         -14.8846  -15.0413   -7.5024 C.ar    1  UNK1        0.0298
     33 CG        -16.7906  -12.8082    3.4762 C.3     4  LEU4       -0.0446
     34 CB        -11.7429   -8.1753    3.5143 C.3     5  TRP5        0.0013
     35 C         -14.6958  -10.3679    3.7612 C.2     4  LEU4        0.2340
     36 CA        -11.7615  -11.0620   -0.2535 C.3     6  ASP6        0.1045
     37 C         -13.8822   -8.0452   -2.8578 C.2     1  UNK1        0.2344
     38 CG        -10.2630   -8.2211    3.3068 C.ar    5  TRP5       -0.0201
     39 C         -12.5148   -9.6212    1.5705 C.2     5  TRP5        0.2343
     40 C         -11.7667  -10.0072   -1.3862 C.2     6  ASP6        0.2343
     41 CA        -16.0479   -7.5067   -1.7942 C.3     2  ASP2        0.1045
     42 CD2       -17.6136  -12.6384    4.7515 C.3     4  LEU4       -0.0626
     43 CD1       -17.4004  -13.9186    2.6117 C.3     4  LEU4       -0.0626
     44 C         -17.3763   -6.9258    1.7519 C.3     3  UNK3        0.1311
     45 C         -16.1948  -15.5359   -7.6296 C.ar    1  UNK1       -0.0407
     46 C         -13.9083  -15.9297   -7.0330 C.ar    1  UNK1       -0.0407
     47 CD2        -9.5446   -7.6833    2.1908 C.ar    5  TRP5        0.0029
     48 C         -16.7667   -7.8316    2.8762 C.2     3  UNK3        0.2390
     49 CB        -10.6919  -12.0990   -0.5798 C.3     6  ASP6        0.0138
     50 CD1        -9.3264   -8.7804    4.1538 C.ar    5  TRP5        0.0060
     51 CE2        -8.1884   -7.9267    2.4063 C.ar    5  TRP5        0.0467
     52 C         -16.6945   -7.8966   -0.4478 C.2     2  ASP2        0.2345
     53 CB        -17.1086   -7.3585   -2.8778 C.3     2  ASP2        0.0138
     54 C         -16.5212  -16.8527   -7.2932 C.ar    1  UNK1       -0.0600
     55 C         -14.2294  -17.2490   -6.6895 C.ar    1  UNK1       -0.0600
     56 C         -17.6050   -5.4642    2.1369 C.ar    3  UNK3        0.0189
     57 CE3        -9.9286   -7.0286    1.0037 C.ar    5  TRP5       -0.0523
     58 C         -15.5359  -17.7102   -6.8185 C.ar    1  UNK1       -0.0616
     59 CZ2        -7.1946   -7.5325    1.5012 C.ar    5  TRP5       -0.0378
     60 CG        -10.7602  -13.2378    0.4241 C.2     6  ASP6        0.0440
     61 CZ3        -8.9508   -6.6401    0.0822 C.ar    5  TRP5       -0.0611
     62 C         -17.5123   -4.3435    1.3171 C.ar    3  UNK3       -0.0493
     63 CH2        -7.6033   -6.8836    0.3320 C.ar    5  TRP5       -0.0598
     64 CG        -17.7798   -8.6764   -3.2505 C.2     2  ASP2        0.0440
     65 C         -17.8299   -3.1254    1.9821 C.ar    3  UNK3       -0.0544
     66 C         -18.1959   -3.3406    3.2882 C.ar    3  UNK3       -0.0240
     67 H         -13.6101  -10.6768   -1.9628 H       1  UNK1        0.1495
     68 H         -14.4022   -8.6681    2.7576 H       5  TRP5        0.1495
     69 H         -16.5552   -9.3172    1.4547 H       4  LEU4        0.1495
     70 H         -11.0917  -11.0823    1.7053 H       6  ASP6        0.1495
     71 H         -15.3755   -9.3690   -2.3654 H       2  ASP2        0.1495
     72 H         -15.7674   -6.3221    0.4787 H       3  UNK3        0.1498
     73 HE1        -7.2260   -8.9725    3.9732 H       5  TRP5        0.1653
     74 H         -12.3450  -13.2691   -6.1749 H       1  UNK1        0.0480
     75 H         -11.5917  -12.1493   -7.3143 H       1  UNK1        0.0480
     76 H         -14.7229  -10.9021   -7.8249 H       1  UNK1        0.0480
     77 H         -15.3423  -10.7346   -6.1909 H       1  UNK1        0.0480
     78 H         -13.3340  -12.5606   -8.9848 H       1  UNK1        0.0479
     79 H         -12.6385  -14.0901   -8.5267 H       1  UNK1        0.0479
     80 H         -15.4834  -13.1769   -5.9272 H       1  UNK1        0.0479
     81 H         -16.4137  -12.6463   -7.3465 H       1  UNK1        0.0479
     82 H         -14.5194  -10.4510   -4.2371 H       1  UNK1        0.0381
     83 H         -14.0700   -9.0475   -5.2412 H       1  UNK1        0.0381
     84 H         -12.0270   -8.7680   -3.6462 H       1  UNK1        0.0599
     85 HA        -16.7621  -10.0501    4.2703 H       4  LEU4        0.0594
     86 HB1       -16.0578  -11.7068    1.7740 H       4  LEU4        0.0290
     87 HB2       -17.6965  -11.2997    2.2409 H       4  LEU4        0.0290
     88 HA        -12.1005  -10.3383    3.5860 H       5  TRP5        0.0598
     89 HG        -15.7836  -13.1357    3.7553 H       4  LEU4        0.0296
     90 HB1       -11.9327   -7.9832    4.5798 H       5  TRP5        0.0337
     91 HB2       -12.1543   -7.3042    2.9869 H       5  TRP5        0.0337
     92 HA        -12.7464  -11.5452   -0.2049 H       6  ASP6        0.0598
     93 HA        -15.5797   -6.5223   -1.6667 H       2  ASP2        0.0598
     94 HD21      -18.6104  -12.2418    4.5315 H       4  LEU4        0.0232
     95 HD22      -17.1208  -11.9599    5.4541 H       4  LEU4        0.0232
     96 HD23      -17.7377  -13.5987    5.2637 H       4  LEU4        0.0232
     97 HD11      -18.4256  -13.6729    2.3132 H       4  LEU4        0.0232
     98 HD12      -17.4258  -14.8681    3.1567 H       4  LEU4        0.0232
     99 HD13      -16.8108  -14.0724    1.7015 H       4  LEU4        0.0232
    100 H         -18.3565   -7.3605    1.5126 H       3  UNK3        0.0651
    101 H         -16.9805  -14.8823   -8.0006 H       1  UNK1        0.0636
    102 H         -12.8852  -15.6043   -6.8741 H       1  UNK1        0.0636
    103 HB1        -9.6882  -11.6589   -0.5392 H       6  ASP6        0.0348
    104 HB2       -10.8352  -12.4869   -1.5959 H       6  ASP6        0.0348
    105 HD1        -9.4403   -9.3047    5.0930 H       5  TRP5        0.0810
    106 HB1       -16.6607   -6.9558   -3.7944 H       2  ASP2        0.0348
    107 HB2       -17.8722   -6.6420   -2.5487 H       2  ASP2        0.0348
    108 H         -17.5468  -17.1957   -7.3912 H       1  UNK1        0.0618
    109 H         -13.4568  -17.9049   -6.2970 H       1  UNK1        0.0618
    110 HE3       -10.9783   -6.8729    0.7697 H       5  TRP5        0.0624
    111 H         -15.7864  -18.7279   -6.5351 H       1  UNK1        0.0618
    112 HZ2        -6.1480   -7.7505    1.6782 H       5  TRP5        0.0638
    113 HZ3        -9.2616   -6.1833   -0.8541 H       5  TRP5        0.0618
    114 H         -17.2295   -4.3934    0.2713 H       3  UNK3        0.0626
    115 HH2        -6.8649   -6.5958   -0.4109 H       5  TRP5        0.0618
    116 H         -17.7983   -2.1470    1.5198 H       3  UNK3        0.0623
    117 H         -18.4822   -2.6055    4.0265 H       3  UNK3        0.0693
@<TRIPOS>BOND
     1     1    56   ar
     2     1    66   ar
     3     2    26    2
     4     3    35    2
     5     4    37    2
     6     5    39    2
     7     6    40    2
     8     7    48    2
     9     8    52    2
    10     9    60   ar
    11    10    60   ar
    12    11    64   ar
    13    12    64   ar
    14    13    22    1
    15    13    23    1
    16    14    24    1
    17    14    25    1
    18    14    32    1
    19    15    28    1
    20    15    40   am
    21    16    35   am
    22    16    31    1
    23    17    48   am
    24    17    29    1
    25    18    39   am
    26    18    36    1
    27    19    37   am
    28    19    41    1
    29    20    52   am
    30    20    44    1
    31    21    50   ar
    32    21    51   ar
    33    22    24    1
    34    23    25    1
    35    26    27    1
    36    26    13   am
    37    28    37    1
    38    28    27    1
    39    29    35    1
    40    29    30    1
    41    30    33    1
    42    31    39    1
    43    31    34    1
    44    32    45   ar
    45    32    46   ar
    46    33    43    1
    47    33    42    1
    48    34    38    1
    49    36    40    1
    50    36    49    1
    51    38    47   ar
    52    38    50   ar
    53    41    52    1
    54    41    53    1
    55    44    48    1
    56    44    56    1
    57    45    54   ar
    58    46    55   ar
    59    47    57   ar
    60    47    51   ar
    61    49    60    1
    62    51    59   ar
    63    53    64    1
    64    54    58   ar
    65    55    58   ar
    66    56    62   ar
    67    57    61   ar
    68    59    63   ar
    69    61    63   ar
    70    62    65   ar
    71    65    66   ar
    72    15    67    1
    73    16    68    1
    74    17    69    1
    75    18    70    1
    76    19    71    1
    77    20    72    1
    78    21    73    1
    79    22    74    1
    80    22    75    1
    81    23    76    1
    82    23    77    1
    83    24    78    1
    84    24    79    1
    85    25    80    1
    86    25    81    1
    87    27    82    1
    88    27    83    1
    89    28    84    1
    90    29    85    1
    91    30    86    1
    92    30    87    1
    93    31    88    1
    94    33    89    1
    95    34    90    1
    96    34    91    1
    97    36    92    1
    98    41    93    1
    99    42    94    1
   100    42    95    1
   101    42    96    1
   102    43    97    1
   103    43    98    1
   104    43    99    1
   105    44   100    1
   106    45   101    1
   107    46   102    1
   108    49   103    1
   109    49   104    1
   110    50   105    1
   111    53   106    1
   112    53   107    1
   113    54   108    1
   114    55   109    1
   115    57   110    1
   116    58   111    1
   117    59   112    1
   118    61   113    1
   119    62   114    1
   120    63   115    1
   121    65   116    1
   122    66   117    1
@<TRIPOS>MOLECULE
123882
 117 122 0 0 0
SMALL
GASTEIGER

@<TRIPOS>ATOM
      1 S         -19.0257   -4.8765    2.3517 S.2     3  UNK3       -0.0993
      2 O         -12.9109   -7.7437   -5.7454 O.2     1  UNK1       -0.2755
      3 O         -14.3693  -11.2807    4.2913 O.2     4  LEU4       -0.2738
      4 O         -13.4946   -6.8895   -2.2863 O.2     1  UNK1       -0.2737
      5 O         -13.3614   -9.2225    0.8260 O.2     5  TRP5       -0.2738
      6 O         -10.5915   -9.2331   -1.5806 O.2     6  ASP6       -0.2738
      7 O         -17.0577   -7.4833    3.7468 O.2     3  UNK3       -0.2734
      8 O         -16.6659   -9.0216   -0.4044 O.2     2  ASP2       -0.2737
      9 OD1       -11.1551  -14.2719   -0.1324 O.co2   6  ASP6       -0.5497
     10 OD2       -10.5798  -12.9447    1.6447 O.co2   6  ASP6       -0.5497
     11 OD1       -17.6905   -5.4699   -3.7302 O.co2   2  ASP2       -0.5497
     12 OD2       -17.8741   -7.1952   -5.2156 O.co2   2  ASP2       -0.5497
     13 N         -14.3245   -9.2424   -6.7400 N.am    1  UNK1       -0.2984
     14 N         -16.5612   -9.8623   -8.5667 N.pl3   1  UNK1       -0.3269
     15 N         -12.6754  -10.0141   -2.1820 N.am    1  UNK1       -0.3020
     16 N         -13.9412   -9.2285    3.3569 N.am    5  TRP5       -0.3022
     17 N         -16.4310   -9.0529    2.2359 N.am    4  LEU4       -0.3022
     18 N         -11.4217  -10.4094    1.0761 N.am    6  ASP6       -0.3021
     19 N         -15.1999   -8.3446   -2.7502 N.am    2  ASP2       -0.3021
     20 N         -16.5308   -6.8082    0.1425 N.am    3  UNK3       -0.2984
     21 NE1       -12.3390   -7.0560    6.8873 N.ar    5  TRP5       -0.3604
     22 C         -14.9080  -10.5851   -6.8592 C.3     1  UNK1        0.0304
     23 C         -14.7439   -8.2753   -7.7622 C.3     1  UNK1        0.0304
     24 C         -15.4921  -10.8347   -8.2620 C.3     1  UNK1        0.0280
     25 C         -16.2245   -8.4552   -8.1578 C.3     1  UNK1        0.0280
     26 C         -13.5167   -8.8134   -5.6990 C.2     1  UNK1        0.2179
     27 C         -13.3617   -9.7614   -4.5241 C.3     1  UNK1        0.0510
     28 C         -12.8782   -9.0396   -3.2615 C.3     1  UNK1        0.1076
     29 CA        -16.2233  -10.1189    3.2234 C.3     4  LEU4        0.0997
     30 CB        -16.8843  -11.4442    2.7841 C.3     4  LEU4       -0.0236
     31 CA        -12.5172   -9.4606    3.0915 C.3     5  TRP5        0.1034
     32 C         -17.9155  -10.2022   -8.3760 C.ar    1  UNK1        0.0298
     33 CG        -16.4593  -12.0467    1.4236 C.3     4  LEU4       -0.0446
     34 CB        -11.6456   -8.2589    3.4695 C.3     5  TRP5        0.0013
     35 C         -14.7546  -10.3013    3.6590 C.2     4  LEU4        0.2340
     36 CA        -11.5757  -11.0330   -0.2417 C.3     6  ASP6        0.1045
     37 C         -13.8693   -7.9651   -2.7504 C.2     1  UNK1        0.2344
     38 CG        -11.6917   -7.9239    4.9364 C.ar    5  TRP5       -0.0201
     39 C         -12.4797   -9.6778    1.5627 C.2     5  TRP5        0.2343
     40 C         -11.5440   -9.9832   -1.3792 C.2     6  ASP6        0.2343
     41 CA        -16.2372   -7.4604   -2.2212 C.3     2  ASP2        0.1045
     42 CD2       -15.0256  -12.5716    1.4044 C.3     4  LEU4       -0.0626
     43 CD1       -17.4091  -13.1895    1.0456 C.3     4  LEU4       -0.0626
     44 C         -17.3291   -6.8793    1.3657 C.3     3  UNK3        0.1311
     45 C         -18.9323   -9.2500   -8.5916 C.ar    1  UNK1       -0.0407
     46 C         -18.3513  -11.4806   -7.9898 C.ar    1  UNK1       -0.0407
     47 CD2       -10.8314   -8.4164    5.9719 C.ar    5  TRP5        0.0029
     48 C         -16.8697   -7.7882    2.5657 C.2     3  UNK3        0.2390
     49 CB        -10.4790  -12.0531   -0.5198 C.3     6  ASP6        0.0138
     50 CD1       -12.5995   -7.0777    5.5458 C.ar    5  TRP5        0.0060
     51 CE2       -11.2551   -7.8505    7.1764 C.ar    5  TRP5        0.0467
     52 C         -16.4742   -7.8544   -0.7492 C.2     2  ASP2        0.2345
     53 CB        -17.5669   -7.6731   -2.9370 C.3     2  ASP2        0.0138
     54 C         -20.2877   -9.5338   -8.3820 C.ar    1  UNK1       -0.0600
     55 C         -19.7079  -11.7770   -7.7843 C.ar    1  UNK1       -0.0600
     56 C         -17.4789   -5.4581    1.8794 C.ar    3  UNK3        0.0189
     57 CE3        -9.7346   -9.3020    6.0003 C.ar    5  TRP5       -0.0523
     58 C         -20.6766  -10.8004   -7.9725 C.ar    1  UNK1       -0.0616
     59 CZ2       -10.6354   -8.1192    8.4038 C.ar    5  TRP5       -0.0378
     60 CG        -10.7608  -13.2096    0.4189 C.2     6  ASP6        0.0440
     61 CZ3        -9.1021   -9.5809    7.2186 C.ar    5  TRP5       -0.0611
     62 C         -16.5075   -4.4852    2.0481 C.ar    3  UNK3       -0.0493
     63 CH2        -9.5468   -8.9957    8.4017 C.ar    5  TRP5       -0.0598
     64 CG        -17.6987   -6.6832   -4.0749 C.2     2  ASP2        0.0440
     65 C         -17.0371   -3.2688    2.5668 C.ar    3  UNK3       -0.0544
     66 C         -18.3924   -3.3511    2.7896 C.ar    3  UNK3       -0.0240
     67 H         -13.5072  -10.3629   -1.7188 H       1  UNK1        0.1495
     68 H         -14.3705   -8.5723    2.7116 H       5  TRP5        0.1495
     69 H         -16.2349   -9.2489    1.2507 H       4  LEU4        0.1495
     70 H         -11.0023  -11.0640    1.7474 H       6  ASP6        0.1495
     71 H         -15.4346   -9.3259   -2.7809 H       2  ASP2        0.1495
     72 H         -16.4935   -5.8960   -0.3020 H       3  UNK3        0.1498
     73 HE1       -12.8743   -6.5428    7.5720 H       5  TRP5        0.1653
     74 H         -15.6938  -10.6745   -6.1008 H       1  UNK1        0.0480
     75 H         -14.1304  -11.3234   -6.6380 H       1  UNK1        0.0480
     76 H         -14.0978   -8.4326   -8.6345 H       1  UNK1        0.0480
     77 H         -14.5793   -7.2498   -7.4150 H       1  UNK1        0.0480
     78 H         -14.6988  -10.6974   -9.0093 H       1  UNK1        0.0479
     79 H         -15.7964  -11.8771   -8.3816 H       1  UNK1        0.0479
     80 H         -16.8262   -8.1654   -7.2910 H       1  UNK1        0.0479
     81 H         -16.4508   -7.7753   -8.9872 H       1  UNK1        0.0479
     82 H         -12.6294  -10.5255   -4.8132 H       1  UNK1        0.0381
     83 H         -14.3057  -10.2790   -4.3285 H       1  UNK1        0.0381
     84 H         -11.9322   -8.5289   -3.4768 H       1  UNK1        0.0599
     85 HA        -16.7338   -9.8120    4.1461 H       4  LEU4        0.0594
     86 HB1       -17.9669  -11.2604    2.7425 H       4  LEU4        0.0290
     87 HB2       -16.7357  -12.1999    3.5667 H       4  LEU4        0.0290
     88 HA        -12.1851  -10.3721    3.6007 H       5  TRP5        0.0598
     89 HG        -16.5533  -11.2885    0.6423 H       4  LEU4        0.0296
     90 HB1       -11.9599   -7.3742    2.8989 H       5  TRP5        0.0337
     91 HB2       -10.6056   -8.4486    3.1752 H       5  TRP5        0.0337
     92 HA        -12.5541  -11.5321   -0.2458 H       6  ASP6        0.0598
     93 HA        -15.8861   -6.4249   -2.2725 H       2  ASP2        0.0598
     94 HD21      -14.8564  -13.3060    2.1984 H       4  LEU4        0.0232
     95 HD22      -14.3058  -11.7630    1.5240 H       4  LEU4        0.0232
     96 HD23      -14.8003  -13.0542    0.4467 H       4  LEU4        0.0232
     97 HD11      -17.3598  -14.0055    1.7742 H       4  LEU4        0.0232
     98 HD12      -17.1529  -13.5975    0.0615 H       4  LEU4        0.0232
     99 HD13      -18.4444  -12.8364    0.9961 H       4  LEU4        0.0232
    100 H         -18.3096   -7.2730    1.0644 H       3  UNK3        0.0651
    101 H         -18.6828   -8.2384   -8.9012 H       1  UNK1        0.0636
    102 H         -17.6541  -12.2857   -7.7961 H       1  UNK1        0.0636
    103 HB1        -9.4803  -11.6465   -0.3254 H       6  ASP6        0.0348
    104 HB2       -10.5078  -12.3908   -1.5624 H       6  ASP6        0.0348
    105 HD1       -13.4302   -6.5184    5.1353 H       5  TRP5        0.0810
    106 HB1       -18.4127   -7.4732   -2.2651 H       2  ASP2        0.0348
    107 HB2       -17.6821   -8.7061   -3.2879 H       2  ASP2        0.0348
    108 H         -21.0247   -8.7473   -8.5158 H       1  UNK1        0.0618
    109 H         -19.9961  -12.7703   -7.4530 H       1  UNK1        0.0618
    110 HE3        -9.3875   -9.7761    5.0863 H       5  TRP5        0.0624
    111 H         -21.7230  -11.0176   -7.7849 H       1  UNK1        0.0618
    112 HZ2       -10.9898   -7.6733    9.3265 H       5  TRP5        0.0638
    113 HZ3        -8.2623  -10.2706    7.2353 H       5  TRP5        0.0618
    114 H         -15.4616   -4.6420    1.8066 H       3  UNK3        0.0626
    115 HH2        -9.0474   -9.2319    9.3376 H       5  TRP5        0.0618
    116 H         -16.4504   -2.3817    2.7688 H       3  UNK3        0.0623
    117 H         -19.0468   -2.5870    3.1840 H       3  UNK3        0.0693
@<TRIPOS>BOND
     1     1    56   ar
     2     1    66   ar
     3     2    26    2
     4     3    35    2
     5     4    37    2
     6     5    39    2
     7     6    40    2
     8     7    48    2
     9     8    52    2
    10     9    60   ar
    11    10    60   ar
    12    11    64   ar
    13    12    64   ar
    14    13    22    1
    15    13    23    1
    16    14    24    1
    17    14    25    1
    18    14    32    1
    19    15    28    1
    20    15    40   am
    21    16    35   am
    22    16    31    1
    23    17    48   am
    24    17    29    1
    25    18    39   am
    26    18    36    1
    27    19    37   am
    28    19    41    1
    29    20    52   am
    30    20    44    1
    31    21    50   ar
    32    21    51   ar
    33    22    24    1
    34    23    25    1
    35    26    27    1
    36    26    13   am
    37    28    37    1
    38    28    27    1
    39    29    35    1
    40    29    30    1
    41    30    33    1
    42    31    39    1
    43    31    34    1
    44    32    45   ar
    45    32    46   ar
    46    33    43    1
    47    33    42    1
    48    34    38    1
    49    36    40    1
    50    36    49    1
    51    38    47   ar
    52    38    50   ar
    53    41    52    1
    54    41    53    1
    55    44    48    1
    56    44    56    1
    57    45    54   ar
    58    46    55   ar
    59    47    57   ar
    60    47    51   ar
    61    49    60    1
    62    51    59   ar
    63    53    64    1
    64    54    58   ar
    65    55    58   ar
    66    56    62   ar
    67    57    61   ar
    68    59    63   ar
    69    61    63   ar
    70    62    65   ar
    71    65    66   ar
    72    15    67    1
    73    16    68    1
    74    17    69    1
    75    18    70    1
    76    19    71    1
    77    20    72    1
    78    21    73    1
    79    22    74    1
    80    22    75    1
    81    23    76    1
    82    23    77    1
    83    24    78    1
    84    24    79    1
    85    25    80    1
    86    25    81    1
    87    27    82    1
    88    27    83    1
    89    28    84    1
    90    29    85    1
    91    30    86    1
    92    30    87    1
    93    31    88    1
    94    33    89    1
    95    34    90    1
    96    34    91    1
    97    36    92    1
    98    41    93    1
    99    42    94    1
   100    42    95    1
   101    42    96    1
   102    43    97    1
   103    43    98    1
   104    43    99    1
   105    44   100    1
   106    45   101    1
   107    46   102    1
   108    49   103    1
   109    49   104    1
   110    50   105    1
   111    53   106    1
   112    53   107    1
   113    54   108    1
   114    55   109    1
   115    57   110    1
   116    58   111    1
   117    59   112    1
   118    61   113    1
   119    62   114    1
   120    63   115    1
   121    65   116    1
   122    66   117    1
@<TRIPOS>MOLECULE
123882
 117 122 0 0 0
SMALL
GASTEIGER

@<TRIPOS>ATOM
      1 S         -16.3543   -4.1829    1.8246 S.2     3  UNK3       -0.0993
      2 O         -11.7057  -11.5354   -4.6176 O.2     1  UNK1       -0.2755
      3 O         -14.2132  -11.2296    4.4016 O.2     4  LEU4       -0.2738
      4 O         -13.9267   -7.0879   -3.8675 O.2     1  UNK1       -0.2737
      5 O         -13.4827   -9.1750    0.9002 O.2     5  TRP5       -0.2738
      6 O         -11.1511   -8.8925   -1.3772 O.2     6  ASP6       -0.2738
      7 O         -17.1059   -7.5332    3.9961 O.2     3  UNK3       -0.2734
      8 O         -16.6371   -9.0025   -0.1449 O.2     2  ASP2       -0.2737
      9 OD1       -10.5668  -12.9467    1.4711 O.co2   6  ASP6       -0.5497
     10 OD2       -11.1340  -14.2343   -0.3343 O.co2   6  ASP6       -0.5497
     11 OD1       -17.8853   -5.5746   -1.6047 O.co2   2  ASP2       -0.5497
     12 OD2       -19.4101   -6.7702   -2.8061 O.co2   2  ASP2       -0.5497
     13 N         -12.6416  -11.1967   -6.6692 N.am    1  UNK1       -0.2984
     14 N         -11.7826  -10.7211   -9.3985 N.pl3   1  UNK1       -0.3269
     15 N         -12.8224  -10.1591   -2.3149 N.am    1  UNK1       -0.3020
     16 N         -13.8822   -9.1586    3.4699 N.am    5  TRP5       -0.3022
     17 N         -16.3988   -9.0270    2.4531 N.am    4  LEU4       -0.3022
     18 N         -11.5613  -10.4082    1.0485 N.am    6  ASP6       -0.3021
     19 N         -14.9452   -8.4144   -2.2937 N.am    2  ASP2       -0.3021
     20 N         -16.5960   -6.7766    0.3882 N.am    3  UNK3       -0.2984
     21 NE1        -8.1973   -8.2685    2.2457 N.ar    5  TRP5       -0.3604
     22 C         -13.4641  -10.4036   -7.5952 C.3     1  UNK1        0.0304
     23 C         -11.6897  -12.1185   -7.2993 C.3     1  UNK1        0.0304
     24 C         -13.2244  -10.7785   -9.0691 C.3     1  UNK1        0.0280
     25 C         -10.8974  -11.4176   -8.4168 C.3     1  UNK1        0.0280
     26 C         -12.5410  -10.9529   -5.3093 C.2     1  UNK1        0.2179
     27 C         -13.5611  -10.0234   -4.6835 C.3     1  UNK1        0.0510
     28 C         -12.9784   -9.2845   -3.4756 C.3     1  UNK1        0.1076
     29 CA        -16.1437  -10.1111    3.4082 C.3     4  LEU4        0.0997
     30 CB        -16.7994  -11.4361    2.9597 C.3     4  LEU4       -0.0236
     31 CA        -12.4685   -9.3419    3.0995 C.3     5  TRP5        0.1034
     32 C         -11.2220   -9.5844   -9.9972 C.ar    1  UNK1        0.0298
     33 CG        -16.3841  -12.0259    1.5897 C.3     4  LEU4       -0.0446
     34 CB        -11.6906   -8.0525    3.3836 C.3     5  TRP5        0.0013
     35 C         -14.6531  -10.2605    3.7881 C.2     4  LEU4        0.2340
     36 CA        -11.7681  -11.0004   -0.2704 C.3     6  ASP6        0.1045
     37 C         -13.9394   -8.1128   -3.1850 C.2     1  UNK1        0.2344
     38 CG        -10.2055   -8.1499    3.2096 C.ar    5  TRP5       -0.0201
     39 C         -12.5569   -9.6263    1.5840 C.2     5  TRP5        0.2343
     40 C         -11.8622   -9.8961   -1.3506 C.2     6  ASP6        0.2343
     41 CA        -15.9680   -7.4424   -1.8925 C.3     2  ASP2        0.1045
     42 CD2       -14.9797  -12.6253    1.5845 C.3     4  LEU4       -0.0626
     43 CD1       -17.3838  -13.1098    1.1664 C.3     4  LEU4       -0.0626
     44 C         -17.3576   -6.8468    1.6294 C.3     3  UNK3        0.1311
     45 C         -11.9433   -8.4087  -10.2557 C.ar    1  UNK1       -0.0407
     46 C          -9.8707   -9.5836  -10.3952 C.ar    1  UNK1       -0.0407
     47 CD2        -9.2036   -8.2304    4.2326 C.ar    5  TRP5        0.0029
     48 C         -16.8868   -7.7870    2.8086 C.2     3  UNK3        0.2390
     49 CB        -10.6471  -11.9551   -0.6545 C.3     6  ASP6        0.0138
     50 CD1        -9.5336   -8.1324    2.0028 C.ar    5  TRP5        0.0060
     51 CE2        -7.9600   -8.2896    3.5993 C.ar    5  TRP5        0.0467
     52 C         -16.4398   -7.8333   -0.4722 C.2     2  ASP2        0.2345
     53 CB        -17.1582   -7.4593   -2.8451 C.3     2  ASP2        0.0138
     54 C         -11.3460   -7.2875  -10.8486 C.ar    1  UNK1       -0.0600
     55 C          -9.2639   -8.4666  -10.9813 C.ar    1  UNK1       -0.0600
     56 C         -17.4922   -5.4267    2.1876 C.ar    3  UNK3        0.0189
     57 CE3        -9.2330   -8.2534    5.6431 C.ar    5  TRP5       -0.0523
     58 C         -10.0041   -7.3141  -11.2066 C.ar    1  UNK1       -0.0616
     59 CZ2        -6.7501   -8.3670    4.3004 C.ar    5  TRP5       -0.0378
     60 CG        -10.7965  -13.1671    0.2456 C.2     6  ASP6        0.0440
     61 CZ3        -8.0319   -8.3230    6.3611 C.ar    5  TRP5       -0.0611
     62 C         -18.4801   -4.9453    3.0325 C.ar    3  UNK3       -0.0493
     63 CH2        -6.8092   -8.3778    5.6964 C.ar    5  TRP5       -0.0598
     64 CG        -18.2523   -6.5052   -2.3792 C.2     2  ASP2        0.0440
     65 C         -18.3215   -3.5647    3.3453 C.ar    3  UNK3       -0.0544
     66 C         -17.2235   -3.0204    2.7219 C.ar    3  UNK3       -0.0240
     67 H         -13.1414  -11.1190   -2.3838 H       1  UNK1        0.1495
     68 H         -14.3715   -8.5230    2.8429 H       5  TRP5        0.1495
     69 H         -16.2329   -9.2044    1.4597 H       4  LEU4        0.1495
     70 H         -11.0837  -11.0450    1.6960 H       6  ASP6        0.1495
     71 H         -14.7543   -9.1687   -1.6374 H       2  ASP2        0.1495
     72 H         -16.8543   -5.9423   -0.1612 H       3  UNK3        0.1498
     73 HE1        -7.4891   -8.3367    1.5294 H       5  TRP5        0.1653
     74 H         -13.2111   -9.3479   -7.4443 H       1  UNK1        0.0480
     75 H         -14.5165  -10.5486   -7.3287 H       1  UNK1        0.0480
     76 H         -12.2726  -12.9531   -7.7072 H       1  UNK1        0.0480
     77 H         -10.9945  -12.5456   -6.5699 H       1  UNK1        0.0480
     78 H         -13.5622  -11.8098   -9.2355 H       1  UNK1        0.0479
     79 H         -13.8456  -10.1753   -9.7377 H       1  UNK1        0.0479
     80 H         -10.2259  -10.6959   -7.9325 H       1  UNK1        0.0479
     81 H         -10.2861  -12.1595   -8.9428 H       1  UNK1        0.0479
     82 H         -14.4311  -10.6272   -4.3975 H       1  UNK1        0.0381
     83 H         -13.9060   -9.2862   -5.4123 H       1  UNK1        0.0381
     84 H         -12.0006   -8.8509   -3.7186 H       1  UNK1        0.0599
     85 HA        -16.6289   -9.8332    4.3525 H       4  LEU4        0.0594
     86 HB1       -17.8833  -11.2566    2.9298 H       4  LEU4        0.0290
     87 HB2       -16.6398  -12.1980    3.7339 H       4  LEU4        0.0290
     88 HA        -12.0516  -10.2085    3.6246 H       5  TRP5        0.0598
     89 HG        -16.4220  -11.2474    0.8247 H       4  LEU4        0.0296
     90 HB1       -11.9040   -7.7312    4.4120 H       5  TRP5        0.0337
     91 HB2       -12.0622   -7.2421    2.7417 H       5  TRP5        0.0337
     92 HA        -12.7291  -11.5299   -0.2322 H       6  ASP6        0.0598
     93 HA        -15.4922   -6.4544   -1.8692 H       2  ASP2        0.0598
     94 HD21      -14.8666  -13.3875    2.3620 H       4  LEU4        0.0232
     95 HD22      -14.2195  -11.8605    1.7402 H       4  LEU4        0.0232
     96 HD23      -14.7616  -13.0955    0.6188 H       4  LEU4        0.0232
     97 HD11      -17.3964  -13.9400    1.8800 H       4  LEU4        0.0232
     98 HD12      -17.1253  -13.5133    0.1812 H       4  LEU4        0.0232
     99 HD13      -18.3972  -12.7013    1.0980 H       4  LEU4        0.0232
    100 H         -18.3586   -7.2056    1.3532 H       3  UNK3        0.0651
    101 H         -12.9863   -8.3099   -9.9756 H       1  UNK1        0.0636
    102 H          -9.2606  -10.4718  -10.2545 H       1  UNK1        0.0636
    103 HB1        -9.6592  -11.5036   -0.5063 H       6  ASP6        0.0348
    104 HB2       -10.7211  -12.2533   -1.7070 H       6  ASP6        0.0348
    105 HD1        -9.9036   -8.0757    0.9856 H       5  TRP5        0.0810
    106 HB1       -17.5763   -8.4720   -2.9117 H       2  ASP2        0.0348
    107 HB2       -16.8520   -7.1682   -3.8567 H       2  ASP2        0.0348
    108 H         -11.9363   -6.3902  -11.0149 H       1  UNK1        0.0618
    109 H          -8.2137   -8.5048  -11.2553 H       1  UNK1        0.0618
    110 HE3       -10.1814   -8.2186    6.1711 H       5  TRP5        0.0624
    111 H          -9.5389   -6.4410  -11.6539 H       1  UNK1        0.0618
    112 HZ2        -5.8001   -8.4208    3.7802 H       5  TRP5        0.0638
    113 HZ3        -8.0594   -8.3409    7.4471 H       5  TRP5        0.0618
    114 H         -19.2768   -5.5710    3.4163 H       3  UNK3        0.0626
    115 HH2        -5.8876   -8.4384    6.2688 H       5  TRP5        0.0618
    116 H         -18.9857   -2.9999    3.9854 H       3  UNK3        0.0623
    117 H         -16.8756   -1.9982    2.7582 H       3  UNK3        0.0693
@<TRIPOS>BOND
     1     1    56   ar
     2     1    66   ar
     3     2    26    2
     4     3    35    2
     5     4    37    2
     6     5    39    2
     7     6    40    2
     8     7    48    2
     9     8    52    2
    10     9    60   ar
    11    10    60   ar
    12    11    64   ar
    13    12    64   ar
    14    13    22    1
    15    13    23    1
    16    14    24    1
    17    14    25    1
    18    14    32    1
    19    15    28    1
    20    15    40   am
    21    16    35   am
    22    16    31    1
    23    17    48   am
    24    17    29    1
    25    18    39   am
    26    18    36    1
    27    19    37   am
    28    19    41    1
    29    20    52   am
    30    20    44    1
    31    21    50   ar
    32    21    51   ar
    33    22    24    1
    34    23    25    1
    35    26    27    1
    36    26    13   am
    37    28    37    1
    38    28    27    1
    39    29    35    1
    40    29    30    1
    41    30    33    1
    42    31    39    1
    43    31    34    1
    44    32    45   ar
    45    32    46   ar
    46    33    43    1
    47    33    42    1
    48    34    38    1
    49    36    40    1
    50    36    49    1
    51    38    47   ar
    52    38    50   ar
    53    41    52    1
    54    41    53    1
    55    44    48    1
    56    44    56    1
    57    45    54   ar
    58    46    55   ar
    59    47    57   ar
    60    47    51   ar
    61    49    60    1
    62    51    59   ar
    63    53    64    1
    64    54    58   ar
    65    55    58   ar
    66    56    62   ar
    67    57    61   ar
    68    59    63   ar
    69    61    63   ar
    70    62    65   ar
    71    65    66   ar
    72    15    67    1
    73    16    68    1
    74    17    69    1
    75    18    70    1
    76    19    71    1
    77    20    72    1
    78    21    73    1
    79    22    74    1
    80    22    75    1
    81    23    76    1
    82    23    77    1
    83    24    78    1
    84    24    79    1
    85    25    80    1
    86    25    81    1
    87    27    82    1
    88    27    83    1
    89    28    84    1
    90    29    85    1
    91    30    86    1
    92    30    87    1
    93    31    88    1
    94    33    89    1
    95    34    90    1
    96    34    91    1
    97    36    92    1
    98    41    93    1
    99    42    94    1
   100    42    95    1
   101    42    96    1
   102    43    97    1
   103    43    98    1
   104    43    99    1
   105    44   100    1
   106    45   101    1
   107    46   102    1
   108    49   103    1
   109    49   104    1
   110    50   105    1
   111    53   106    1
   112    53   107    1
   113    54   108    1
   114    55   109    1
   115    57   110    1
   116    58   111    1
   117    59   112    1
   118    61   113    1
   119    62   114    1
   120    63   115    1
   121    65   116    1
   122    66   117    1
@<TRIPOS>MOLECULE
123882
 117 122 0 0 0
SMALL
GASTEIGER

@<TRIPOS>ATOM
      1 S         -18.8818   -4.5685    1.6868 S.2     3  UNK3       -0.0993
      2 O         -11.3220  -10.7064   -5.0125 O.2     1  UNK1       -0.2755
      3 O         -14.2579  -11.1924    4.4019 O.2     4  LEU4       -0.2738
      4 O         -13.5149   -6.8288   -2.6921 O.2     1  UNK1       -0.2737
      5 O         -13.4479   -9.2256    0.8660 O.2     5  TRP5       -0.2738
      6 O         -10.7994   -9.1384   -1.4008 O.2     6  ASP6       -0.2738
      7 O         -17.3528   -7.5817    3.8001 O.2     3  UNK3       -0.2734
      8 O         -16.9690   -9.0269   -0.3219 O.2     2  ASP2       -0.2737
      9 OD1       -11.3728  -14.3118   -0.1820 O.co2   6  ASP6       -0.5497
     10 OD2       -10.6598  -13.0654    1.6004 O.co2   6  ASP6       -0.5497
     11 OD1       -16.4035   -7.7830   -5.0570 O.co2   2  ASP2       -0.5497
     12 OD2       -18.3974   -6.7174   -4.7849 O.co2   2  ASP2       -0.5497
     13 N         -13.0619  -11.4163   -6.3165 N.am    1  UNK1       -0.2984
     14 N         -13.3515  -11.8215   -9.1720 N.pl3   1  UNK1       -0.3269
     15 N         -12.7033  -10.1157   -2.2577 N.am    1  UNK1       -0.3020
     16 N         -13.8941   -9.1494    3.4191 N.am    5  TRP5       -0.3022
     17 N         -16.3713   -9.0196    2.3422 N.am    4  LEU4       -0.3022
     18 N         -11.5424  -10.4796    1.0771 N.am    6  ASP6       -0.3021
     19 N         -15.1075   -8.4634   -2.4479 N.am    2  ASP2       -0.3021
     20 N         -16.4835   -6.8869    0.2587 N.am    3  UNK3       -0.2984
     21 NE1        -8.1995   -8.2807    2.2269 N.ar    5  TRP5       -0.3604
     22 C         -14.3296  -11.0853   -6.9907 C.3     1  UNK1        0.0304
     23 C         -12.2217  -12.4042   -6.9956 C.3     1  UNK1        0.0304
     24 C         -14.5389  -11.8948   -8.2863 C.3     1  UNK1        0.0280
     25 C         -12.0480  -12.0528   -8.4816 C.3     1  UNK1        0.0280
     26 C         -12.5156  -10.6372   -5.3011 C.2     1  UNK1        0.2179
     27 C         -13.4830   -9.7185   -4.5779 C.3     1  UNK1        0.0510
     28 C         -12.8899   -9.1080   -3.3046 C.3     1  UNK1        0.1076
     29 CA        -16.1543  -10.0937    3.3224 C.3     4  LEU4        0.0997
     30 CB        -16.8057  -11.4200    2.8777 C.3     4  LEU4       -0.0236
     31 CA        -12.4735   -9.3521    3.0825 C.3     5  TRP5        0.1034
     32 C         -13.3012  -10.9170  -10.2407 C.ar    1  UNK1        0.0298
     33 CG        -16.3650  -12.0195    1.5208 C.3     4  LEU4       -0.0446
     34 CB        -11.6948   -8.0604    3.3530 C.3     5  TRP5        0.0013
     35 C         -14.6763  -10.2414    3.7486 C.2     4  LEU4        0.2340
     36 CA        -11.7107  -11.0921   -0.2401 C.3     6  ASP6        0.1045
     37 C         -13.8429   -8.0118   -2.7733 C.2     1  UNK1        0.2344
     38 CG        -10.2085   -8.1576    3.1860 C.ar    5  TRP5       -0.0201
     39 C         -12.5365   -9.6731    1.5721 C.2     5  TRP5        0.2343
     40 C         -11.6718  -10.0037   -1.3380 C.2     6  ASP6        0.2343
     41 CA        -16.1997   -7.5662   -2.1120 C.3     2  ASP2        0.1045
     42 CD2       -14.9700  -12.6400    1.5563 C.3     4  LEU4       -0.0626
     43 CD1       -17.3692  -13.0912    1.0784 C.3     4  LEU4       -0.0626
     44 C         -17.3461   -6.8933    1.4379 C.3     3  UNK3        0.1311
     45 C         -12.2235  -10.9482  -11.1480 C.ar    1  UNK1       -0.0407
     46 C         -14.2935   -9.9579  -10.4911 C.ar    1  UNK1       -0.0407
     47 CD2        -9.2106   -8.2339    4.2124 C.ar    5  TRP5        0.0029
     48 C         -16.9830   -7.8243    2.6481 C.2     3  UNK3        0.2390
     49 CB        -10.6207  -12.1112   -0.5406 C.3     6  ASP6        0.0138
     50 CD1        -9.5357   -8.1459    1.9816 C.ar    5  TRP5        0.0060
     51 CE2        -7.9658   -8.2959    3.5816 C.ar    5  TRP5        0.0467
     52 C         -16.5830   -7.9045   -0.6579 C.2     2  ASP2        0.2345
     53 CB        -17.4550   -7.8157   -2.9417 C.3     2  ASP2        0.0138
     54 C         -12.1225  -10.0542  -12.2202 C.ar    1  UNK1       -0.0600
     55 C         -14.2047   -9.0633  -11.5668 C.ar    1  UNK1       -0.0600
     56 C         -17.4335   -5.4615    1.9225 C.ar    3  UNK3        0.0189
     57 CE3        -9.2441   -8.2519    5.6229 C.ar    5  TRP5       -0.0523
     58 C         -13.1159   -9.1074  -12.4290 C.ar    1  UNK1       -0.0616
     59 CZ2        -6.7578   -8.3716    4.2861 C.ar    5  TRP5       -0.0378
     60 CG        -10.9081  -13.2823    0.3778 C.2     6  ASP6        0.0440
     61 CZ3        -8.0450   -8.3206    6.3435 C.ar    5  TRP5       -0.0611
     62 C         -16.4693   -4.6931    2.5519 C.ar    3  UNK3       -0.0493
     63 CH2        -6.8203   -8.3780    5.6819 C.ar    5  TRP5       -0.0598
     64 CG        -17.4002   -7.3772   -4.3937 C.2     2  ASP2        0.0440
     65 C         -16.9323   -3.3807    2.8574 C.ar    3  UNK3       -0.0544
     66 C         -18.2281   -3.1812    2.4394 C.ar    3  UNK3       -0.0240
     67 H         -13.5027  -10.6622   -1.9682 H       1  UNK1        0.1495
     68 H         -14.3660   -8.5407    2.7535 H       5  TRP5        0.1495
     69 H         -16.1533   -9.2069    1.3596 H       4  LEU4        0.1495
     70 H         -11.0839  -11.1044    1.7486 H       6  ASP6        0.1495
     71 H         -15.3267   -9.4463   -2.4998 H       2  ASP2        0.1495
     72 H         -16.2137   -5.9861   -0.1141 H       3  UNK3        0.1498
     73 HE1        -7.4905   -8.3538    1.5113 H       5  TRP5        0.1653
     74 H         -14.3194  -10.0144   -7.2212 H       1  UNK1        0.0480
     75 H         -15.1506  -11.2779   -6.2921 H       1  UNK1        0.0480
     76 H         -12.7171  -13.3770   -6.8887 H       1  UNK1        0.0480
     77 H         -11.2415  -12.4968   -6.5169 H       1  UNK1        0.0480
     78 H         -14.6835  -12.9515   -8.0241 H       1  UNK1        0.0479
     79 H         -15.4696  -11.6095   -8.7868 H       1  UNK1        0.0479
     80 H         -11.4254  -11.1495   -8.5330 H       1  UNK1        0.0479
     81 H         -11.5141  -12.8685   -8.9824 H       1  UNK1        0.0479
     82 H         -14.3842  -10.2942   -4.3364 H       1  UNK1        0.0381
     83 H         -13.7615   -8.9146   -5.2688 H       1  UNK1        0.0381
     84 H         -11.9274   -8.6314   -3.5235 H       1  UNK1        0.0599
     85 HA        -16.6624   -9.7983    4.2496 H       4  LEU4        0.0594
     86 HB1       -17.8884  -11.2374    2.8270 H       4  LEU4        0.0290
     87 HB2       -16.6621  -12.1753    3.6616 H       4  LEU4        0.0290
     88 HA        -12.0727  -10.2080    3.6361 H       5  TRP5        0.0598
     89 HG        -16.3703  -11.2425    0.7521 H       4  LEU4        0.0296
     90 HB1       -11.9131   -7.7253    4.3757 H       5  TRP5        0.0337
     91 HB2       -12.0644   -7.2582    2.6991 H       5  TRP5        0.0337
     92 HA        -12.6973  -11.5723   -0.2452 H       6  ASP6        0.0598
     93 HA        -15.8798   -6.5223   -2.1954 H       2  ASP2        0.0598
     94 HD21      -14.8925  -13.4080    2.3324 H       4  LEU4        0.0232
     95 HD22      -14.2037  -11.8884    1.7413 H       4  LEU4        0.0232
     96 HD23      -14.7297  -13.1083    0.5950 H       4  LEU4        0.0232
     97 HD11      -17.4069  -13.9204    1.7929 H       4  LEU4        0.0232
     98 HD12      -17.0961  -13.4998    0.0991 H       4  LEU4        0.0232
     99 HD13      -18.3765  -12.6706    0.9895 H       4  LEU4        0.0232
    100 H         -18.3349   -7.2397    1.1060 H       3  UNK3        0.0651
    101 H         -11.4353  -11.6869  -11.0300 H       1  UNK1        0.0636
    102 H         -15.1524   -9.8469   -9.8363 H       1  UNK1        0.0636
    103 HB1        -9.6193  -11.7124   -0.3409 H       6  ASP6        0.0348
    104 HB2       -10.6506  -12.4302   -1.5889 H       6  ASP6        0.0348
    105 HD1        -9.9006   -8.0952    0.9610 H       5  TRP5        0.0810
    106 HB1       -18.2992   -7.2940   -2.4659 H       2  ASP2        0.0348
    107 HB2       -17.7180   -8.8812   -2.9390 H       2  ASP2        0.0348
    108 H         -11.2640  -10.1023  -12.8838 H       1  UNK1        0.0618
    109 H         -14.9875   -8.3233  -11.7116 H       1  UNK1        0.0618
    110 HE3       -10.1930   -8.2164    6.1484 H       5  TRP5        0.0624
    111 H         -13.0421   -8.4046  -13.2528 H       1  UNK1        0.0618
    112 HZ2        -5.8067   -8.4286    3.7682 H       5  TRP5        0.0638
    113 HZ3        -8.0743   -8.3361    7.4294 H       5  TRP5        0.0618
    114 H         -15.4799   -5.0641    2.7950 H       3  UNK3        0.0626
    115 HH2        -5.9001   -8.4385    6.2565 H       5  TRP5        0.0618
    116 H         -16.3432   -2.6238    3.3591 H       3  UNK3        0.0623
    117 H         -18.8269   -2.2868    2.5382 H       3  UNK3        0.0693
@<TRIPOS>BOND
     1     1    56   ar
     2     1    66   ar
     3     2    26    2
     4     3    35    2
     5     4    37    2
     6     5    39    2
     7     6    40    2
     8     7    48    2
     9     8    52    2
    10     9    60   ar
    11    10    60   ar
    12    11    64   ar
    13    12    64   ar
    14    13    22    1
    15    13    23    1
    16    14    24    1
    17    14    25    1
    18    14    32    1
    19    15    28    1
    20    15    40   am
    21    16    35   am
    22    16    31    1
    23    17    48   am
    24    17    29    1
    25    18    39   am
    26    18    36    1
    27    19    37   am
    28    19    41    1
    29    20    52   am
    30    20    44    1
    31    21    50   ar
    32    21    51   ar
    33    22    24    1
    34    23    25    1
    35    26    27    1
    36    26    13   am
    37    28    37    1
    38    28    27    1
    39    29    35    1
    40    29    30    1
    41    30    33    1
    42    31    39    1
    43    31    34    1
    44    32    45   ar
    45    32    46   ar
    46    33    43    1
    47    33    42    1
    48    34    38    1
    49    36    40    1
    50    36    49    1
    51    38    47   ar
    52    38    50   ar
    53    41    52    1
    54    41    53    1
    55    44    48    1
    56    44    56    1
    57    45    54   ar
    58    46    55   ar
    59    47    57   ar
    60    47    51   ar
    61    49    60    1
    62    51    59   ar
    63    53    64    1
    64    54    58   ar
    65    55    58   ar
    66    56    62   ar
    67    57    61   ar
    68    59    63   ar
    69    61    63   ar
    70    62    65   ar
    71    65    66   ar
    72    15    67    1
    73    16    68    1
    74    17    69    1
    75    18    70    1
    76    19    71    1
    77    20    72    1
    78    21    73    1
    79    22    74    1
    80    22    75    1
    81    23    76    1
    82    23    77    1
    83    24    78    1
    84    24    79    1
    85    25    80    1
    86    25    81    1
    87    27    82    1
    88    27    83    1
    89    28    84    1
    90    29    85    1
    91    30    86    1
    92    30    87    1
    93    31    88    1
    94    33    89    1
    95    34    90    1
    96    34    91    1
    97    36    92    1
    98    41    93    1
    99    42    94    1
   100    42    95    1
   101    42    96    1
   102    43    97    1
   103    43    98    1
   104    43    99    1
   105    44   100    1
   106    45   101    1
   107    46   102    1
   108    49   103    1
   109    49   104    1
   110    50   105    1
   111    53   106    1
   112    53   107    1
   113    54   108    1
   114    55   109    1
   115    57   110    1
   116    58   111    1
   117    59   112    1
   118    61   113    1
   119    62   114    1
   120    63   115    1
   121    65   116    1
   122    66   117    1
@<TRIPOS>MOLECULE
123882
 117 122 0 0 0
SMALL
GASTEIGER

@<TRIPOS>ATOM
      1 S         -16.1729   -4.8058    2.9719 S.2     3  UNK3       -0.0993
      2 O         -11.4115  -10.6905   -5.0751 O.2     1  UNK1       -0.2755
      3 O         -14.4940  -11.2179    4.5572 O.2     4  LEU4       -0.2738
      4 O         -13.6262   -6.8008   -2.9681 O.2     1  UNK1       -0.2737
      5 O         -13.6122   -9.3058    1.0025 O.2     5  TRP5       -0.2738
      6 O         -11.0363   -8.9809   -1.1402 O.2     6  ASP6       -0.2738
      7 O         -17.8677   -7.7436    3.7635 O.2     3  UNK3       -0.2734
      8 O         -17.1749   -9.0251   -0.2527 O.2     2  ASP2       -0.2737
      9 OD1       -11.3596  -13.1881    1.4999 O.co2   6  ASP6       -0.5497
     10 OD2        -9.9770  -14.2475    0.0222 O.co2   6  ASP6       -0.5497
     11 OD1       -17.3689   -6.2365   -4.4888 O.co2   2  ASP2       -0.5497
     12 OD2       -16.5922   -8.2912   -5.1421 O.co2   2  ASP2       -0.5497
     13 N         -13.1951  -11.3116   -6.3546 N.am    1  UNK1       -0.2984
     14 N         -14.5424  -13.6432   -7.4776 N.pl3   1  UNK1       -0.3269
     15 N         -12.7061  -10.1280   -2.2279 N.am    1  UNK1       -0.3020
     16 N         -14.0536   -9.2053    3.5649 N.am    5  TRP5       -0.3022
     17 N         -16.4271   -8.9510    2.4737 N.am    4  LEU4       -0.3022
     18 N         -11.6800  -10.5308    1.2110 N.am    6  ASP6       -0.3021
     19 N         -15.0009   -8.4642   -2.1900 N.am    2  ASP2       -0.3021
     20 N         -16.4961   -6.9523    0.3829 N.am    3  UNK3       -0.2984
     21 NE1       -12.2853   -6.9733    6.9152 N.ar    5  TRP5       -0.3604
     22 C         -12.4286  -12.4262   -6.9081 C.3     1  UNK1        0.0304
     23 C         -14.5916  -11.2160   -6.8054 C.3     1  UNK1        0.0304
     24 C         -13.1933  -13.2582   -7.9549 C.3     1  UNK1        0.0280
     25 C         -15.2753  -12.5921   -6.7194 C.3     1  UNK1        0.0280
     26 C         -12.6118  -10.5805   -5.3265 C.2     1  UNK1        0.2179
     27 C         -13.5265   -9.6759   -4.5308 C.3     1  UNK1        0.0510
     28 C         -12.8822   -9.1023   -3.2632 C.3     1  UNK1        0.1076
     29 CA        -16.3260  -10.1119    3.3779 C.3     4  LEU4        0.0997
     30 CB        -16.8007  -11.3560    2.6030 C.3     4  LEU4       -0.0236
     31 CA        -12.6554   -9.4838    3.2279 C.3     5  TRP5        0.1034
     32 C         -14.9206  -14.9786   -7.3573 C.ar    1  UNK1        0.0298
     33 CG        -16.8791  -12.6896    3.3725 C.3     4  LEU4       -0.0446
     34 CB        -11.7433   -8.2837    3.5102 C.3     5  TRP5        0.0013
     35 C         -14.8761  -10.2666    3.8919 C.2     4  LEU4        0.2340
     36 CA        -11.8159  -11.0806   -0.1415 C.3     6  ASP6        0.1045
     37 C         -13.8272   -7.9930   -2.7477 C.2     1  UNK1        0.2344
     38 CG        -11.7203   -7.8959    4.9643 C.ar    5  TRP5       -0.0201
     39 C         -12.7068   -9.7630    1.7093 C.2     5  TRP5        0.2343
     40 C         -11.7982   -9.9453   -1.1958 C.2     6  ASP6        0.2343
     41 CA        -16.1700   -7.6244   -1.9795 C.3     2  ASP2        0.1045
     42 CD2       -17.7026  -12.5885    4.6544 C.3     4  LEU4       -0.0626
     43 CD1       -17.4653  -13.7738    2.4615 C.3     4  LEU4       -0.0626
     44 C         -17.4170   -6.8785    1.5117 C.3     3  UNK3        0.1311
     45 C         -14.3092  -16.0033   -8.1006 C.ar    1  UNK1       -0.0407
     46 C         -15.9595  -15.3896   -6.5015 C.ar    1  UNK1       -0.0407
     47 CD2       -10.8396   -8.3874    5.9818 C.ar    5  TRP5        0.0029
     48 C         -17.2411   -7.8676    2.7090 C.2     3  UNK3        0.2390
     49 CB        -10.6979  -12.0631   -0.4749 C.3     6  ASP6        0.0138
     50 CD1       -12.5825   -7.0086    5.5814 C.ar    5  TRP5        0.0060
     51 CE2       -11.2183   -7.7949    7.1882 C.ar    5  TRP5        0.0467
     52 C         -16.6762   -7.9385   -0.5611 C.2     2  ASP2        0.2345
     53 CB        -17.3070   -7.9840   -2.9285 C.3     2  ASP2        0.0138
     54 C         -14.6595  -17.3540   -7.9512 C.ar    1  UNK1       -0.0600
     55 C         -16.3191  -16.7355   -6.3441 C.ar    1  UNK1       -0.0600
     56 C         -17.4296   -5.4444    1.9916 C.ar    3  UNK3        0.0189
     57 CE3        -9.7632   -9.2982    5.9932 C.ar    5  TRP5       -0.0523
     58 C         -15.6589  -17.7221   -7.0621 C.ar    1  UNK1       -0.0616
     59 CZ2       -10.5782   -8.0687    8.4039 C.ar    5  TRP5       -0.0378
     60 CG        -10.6910  -13.2879    0.4290 C.2     6  ASP6        0.0440
     61 CZ3        -9.1086   -9.5791    7.1987 C.ar    5  TRP5       -0.0611
     62 C         -18.3656   -4.4722    1.6836 C.ar    3  UNK3       -0.0493
     63 CH2        -9.5123   -8.9728    8.3862 C.ar    5  TRP5       -0.0598
     64 CG        -17.0375   -7.4442   -4.3147 C.2     2  ASP2        0.0440
     65 C         -18.0676   -3.2162    2.2831 C.ar    3  UNK3       -0.0544
     66 C         -16.9092   -3.2625    3.0233 C.ar    3  UNK3       -0.0240
     67 H         -13.3916  -10.8628   -2.1311 H       1  UNK1        0.1495
     68 H         -14.4961   -8.5425    2.9362 H       5  TRP5        0.1495
     69 H         -16.0581   -9.0676    1.5277 H       4  LEU4        0.1495
     70 H         -11.3752  -11.2668    1.8559 H       6  ASP6        0.1495
     71 H         -15.0997   -9.4530   -2.0075 H       2  ASP2        0.1495
     72 H         -16.0836   -6.0855    0.0557 H       3  UNK3        0.1498
     73 HE1       -12.7878   -6.4360    7.6056 H       5  TRP5        0.1653
     74 H         -12.1471  -13.0749   -6.0681 H       1  UNK1        0.0480
     75 H         -11.5028  -12.0312   -7.3421 H       1  UNK1        0.0480
     76 H         -14.5667  -10.8688   -7.8452 H       1  UNK1        0.0480
     77 H         -15.1590  -10.4778   -6.2381 H       1  UNK1        0.0480
     78 H         -13.3168  -12.6701   -8.8726 H       1  UNK1        0.0479
     79 H         -12.5588  -14.1094   -8.2141 H       1  UNK1        0.0479
     80 H         -15.3174  -12.8650   -5.6575 H       1  UNK1        0.0479
     81 H         -16.2981  -12.5100   -7.1055 H       1  UNK1        0.0479
     82 H         -14.4183  -10.2488   -4.2482 H       1  UNK1        0.0381
     83 H         -13.8294   -8.8579   -5.1945 H       1  UNK1        0.0381
     84 H         -11.9089   -8.6456   -3.4768 H       1  UNK1        0.0599
     85 HA        -16.9601   -9.9315    4.2512 H       4  LEU4        0.0594
     86 HB1       -16.1405  -11.5027    1.7361 H       4  LEU4        0.0290
     87 HB2       -17.7941  -11.1378    2.1848 H       4  LEU4        0.0290
     88 HA        -12.3126  -10.3802    3.7565 H       5  TRP5        0.0598
     89 HG        -15.8669  -13.0143    3.6375 H       4  LEU4        0.0296
     90 HB1       -12.0698   -7.4162    2.9197 H       5  TRP5        0.0337
     91 HB2       -10.7213   -8.5046    3.1758 H       5  TRP5        0.0337
     92 HA        -12.7888  -11.5879   -0.1808 H       6  ASP6        0.0598
     93 HA        -15.8999   -6.5669   -2.0630 H       2  ASP2        0.0598
     94 HD21      -18.7087  -12.2068    4.4514 H       4  LEU4        0.0232
     95 HD22      -17.2249  -11.9267    5.3830 H       4  LEU4        0.0232
     96 HD23      -17.8028  -13.5712    5.1293 H       4  LEU4        0.0232
     97 HD11      -18.4940  -13.5355    2.1698 H       4  LEU4        0.0232
     98 HD12      -17.4736  -14.7448    2.9677 H       4  LEU4        0.0232
     99 HD13      -16.8694  -13.8798    1.5488 H       4  LEU4        0.0232
    100 H         -18.4149   -7.1140    1.1125 H       3  UNK3        0.0651
    101 H         -13.5441  -15.7771   -8.8363 H       1  UNK1        0.0636
    102 H         -16.5128  -14.6681   -5.9072 H       1  UNK1        0.0636
    103 HB1        -9.7193  -11.5752   -0.3814 H       6  ASP6        0.0348
    104 HB2       -10.7952  -12.3989   -1.5140 H       6  ASP6        0.0348
    105 HD1       -13.4092   -6.4337    5.1835 H       5  TRP5        0.0810
    106 HB1       -18.2482   -7.5466   -2.5729 H       2  ASP2        0.0348
    107 HB2       -17.4673   -9.0686   -2.9736 H       2  ASP2        0.0348
    108 H         -14.1421  -18.1113   -8.5331 H       1  UNK1        0.0618
    109 H         -17.1100  -17.0011   -5.6475 H       1  UNK1        0.0618
    110 HE3        -9.4490   -9.7883    5.0758 H       5  TRP5        0.0624
    111 H         -15.9251  -18.7657   -6.9323 H       1  UNK1        0.0618
    112 HZ2       -10.9005   -7.6059    9.3304 H       5  TRP5        0.0638
    113 HZ3        -8.2843  -10.2878    7.2026 H       5  TRP5        0.0618
    114 H         -19.2256   -4.6580    1.0493 H       3  UNK3        0.0626
    115 HH2        -8.9984   -9.2140    9.3124 H       5  TRP5        0.0618
    116 H         -18.6719   -2.3240    2.1710 H       3  UNK3        0.0623
    117 H         -16.4484   -2.4617    3.5831 H       3  UNK3        0.0693
@<TRIPOS>BOND
     1     1    56   ar
     2     1    66   ar
     3     2    26    2
     4     3    35    2
     5     4    37    2
     6     5    39    2
     7     6    40    2
     8     7    48    2
     9     8    52    2
    10     9    60   ar
    11    10    60   ar
    12    11    64   ar
    13    12    64   ar
    14    13    22    1
    15    13    23    1
    16    14    24    1
    17    14    25    1
    18    14    32    1
    19    15    28    1
    20    15    40   am
    21    16    35   am
    22    16    31    1
    23    17    48   am
    24    17    29    1
    25    18    39   am
    26    18    36    1
    27    19    37   am
    28    19    41    1
    29    20    52   am
    30    20    44    1
    31    21    50   ar
    32    21    51   ar
    33    22    24    1
    34    23    25    1
    35    26    27    1
    36    26    13   am
    37    28    37    1
    38    28    27    1
    39    29    35    1
    40    29    30    1
    41    30    33    1
    42    31    39    1
    43    31    34    1
    44    32    45   ar
    45    32    46   ar
    46    33    43    1
    47    33    42    1
    48    34    38    1
    49    36    40    1
    50    36    49    1
    51    38    47   ar
    52    38    50   ar
    53    41    52    1
    54    41    53    1
    55    44    48    1
    56    44    56    1
    57    45    54   ar
    58    46    55   ar
    59    47    57   ar
    60    47    51   ar
    61    49    60    1
    62    51    59   ar
    63    53    64    1
    64    54    58   ar
    65    55    58   ar
    66    56    62   ar
    67    57    61   ar
    68    59    63   ar
    69    61    63   ar
    70    62    65   ar
    71    65    66   ar
    72    15    67    1
    73    16    68    1
    74    17    69    1
    75    18    70    1
    76    19    71    1
    77    20    72    1
    78    21    73    1
    79    22    74    1
    80    22    75    1
    81    23    76    1
    82    23    77    1
    83    24    78    1
    84    24    79    1
    85    25    80    1
    86    25    81    1
    87    27    82    1
    88    27    83    1
    89    28    84    1
    90    29    85    1
    91    30    86    1
    92    30    87    1
    93    31    88    1
    94    33    89    1
    95    34    90    1
    96    34    91    1
    97    36    92    1
    98    41    93    1
    99    42    94    1
   100    42    95    1
   101    42    96    1
   102    43    97    1
   103    43    98    1
   104    43    99    1
   105    44   100    1
   106    45   101    1
   107    46   102    1
   108    49   103    1
   109    49   104    1
   110    50   105    1
   111    53   106    1
   112    53   107    1
   113    54   108    1
   114    55   109    1
   115    57   110    1
   116    58   111    1
   117    59   112    1
   118    61   113    1
   119    62   114    1
   120    63   115    1
   121    65   116    1
   122    66   117    1
@<TRIPOS>MOLECULE
123882
 117 122 0 0 0
SMALL
GASTEIGER

@<TRIPOS>ATOM
      1 S         -16.6533   -4.9459    3.1879 S.2     3  UNK3       -0.0993
      2 O         -11.3668  -10.8035   -5.0567 O.2     1  UNK1       -0.2755
      3 O         -14.3821  -11.1840    4.6014 O.2     4  LEU4       -0.2738
      4 O         -13.5318   -6.9064   -3.0994 O.2     1  UNK1       -0.2737
      5 O         -13.7065   -9.4909    1.0104 O.2     5  TRP5       -0.2738
      6 O         -10.9889   -9.0834   -1.3068 O.2     6  ASP6       -0.2738
      7 O         -18.2148   -8.0479    3.6741 O.2     3  UNK3       -0.2734
      8 O         -16.9294   -9.1103   -0.2027 O.2     2  ASP2       -0.2737
      9 OD1       -10.5110  -12.7864    1.7597 O.co2   6  ASP6       -0.5497
     10 OD2       -10.6837  -14.3439    0.0924 O.co2   6  ASP6       -0.5497
     11 OD1       -17.1642   -9.5062   -3.5747 O.co2   2  ASP2       -0.5497
     12 OD2       -19.1116   -8.4298   -3.0237 O.co2   2  ASP2       -0.5497
     13 N         -13.1086  -11.5239   -6.3482 N.am    1  UNK1       -0.2984
     14 N         -13.4286  -11.9095   -9.1989 N.pl3   1  UNK1       -0.3269
     15 N         -12.7622  -10.2146   -2.2332 N.am    1  UNK1       -0.3020
     16 N         -13.9529   -9.1559    3.6343 N.am    5  TRP5       -0.3022
     17 N         -16.3736   -8.8804    2.6076 N.am    4  LEU4       -0.3022
     18 N         -11.6364  -10.4720    1.1414 N.am    6  ASP6       -0.3021
     19 N         -14.9820   -8.4674   -2.2570 N.am    2  ASP2       -0.3021
     20 N         -16.6402   -6.9599    0.4762 N.am    3  UNK3       -0.2984
     21 NE1       -12.3202   -5.3177    1.4598 N.ar    5  TRP5       -0.3604
     22 C         -14.3943  -11.2117   -6.9877 C.3     1  UNK1        0.0304
     23 C         -12.2679  -12.4976   -7.0451 C.3     1  UNK1        0.0304
     24 C         -14.6120  -11.9749   -8.3087 C.3     1  UNK1        0.0280
     25 C         -12.1151  -12.1327   -8.5287 C.3     1  UNK1        0.0280
     26 C         -12.5676  -10.7630   -5.3195 C.2     1  UNK1        0.2179
     27 C         -13.5459   -9.8867   -4.5587 C.3     1  UNK1        0.0510
     28 C         -12.9134   -9.2488   -3.3237 C.3     1  UNK1        0.1076
     29 CA        -16.2432  -10.0619    3.4771 C.3     4  LEU4        0.0997
     30 CB        -16.7351  -11.2910    2.6856 C.3     4  LEU4       -0.0236
     31 CA        -12.5982   -9.4715    3.1788 C.3     5  TRP5        0.1034
     32 C         -13.3686  -10.9793  -10.2432 C.ar    1  UNK1        0.0298
     33 CG        -16.8148  -12.6370    3.4320 C.3     4  LEU4       -0.0446
     34 CB        -11.5955   -8.3427    3.4421 C.3     5  TRP5        0.0013
     35 C         -14.7803  -10.2193    3.9526 C.2     4  LEU4        0.2340
     36 CA        -11.7721  -11.1055   -0.1680 C.3     6  ASP6        0.1045
     37 C         -13.8034   -8.0832   -2.8563 C.2     1  UNK1        0.2344
     38 CG        -11.9750   -6.9960    2.8908 C.ar    5  TRP5       -0.0201
     39 C         -12.7154   -9.8064    1.6755 C.2     5  TRP5        0.2343
     40 C         -11.7904  -10.0174   -1.2656 C.2     6  ASP6        0.2343
     41 CA        -15.9754   -7.5156   -1.8132 C.3     2  ASP2        0.1045
     42 CD2       -17.6561  -12.5596    4.7040 C.3     4  LEU4       -0.0626
     43 CD1       -17.3867  -13.7091    2.4966 C.3     4  LEU4       -0.0626
     44 C         -17.6375   -7.0145    1.5350 C.3     3  UNK3        0.1311
     45 C         -12.4355  -11.1613  -11.2810 C.ar    1  UNK1       -0.0407
     46 C         -14.1896   -9.8468  -10.3212 C.ar    1  UNK1       -0.0407
     47 CD2       -12.4441   -5.8536    3.6186 C.ar    5  TRP5        0.0029
     48 C         -17.4404   -8.0142    2.7137 C.2     3  UNK3        0.2390
     49 CB        -10.6190  -12.0563   -0.4726 C.3     6  ASP6        0.0138
     50 CD1       -11.9029   -6.6146    1.5646 C.ar    5  TRP5        0.0060
     51 CE2       -12.6295   -4.8159    2.7025 C.ar    5  TRP5        0.0467
     52 C         -16.5615   -7.9690   -0.4624 C.2     2  ASP2        0.2345
     53 CB        -17.0793   -7.2672   -2.8294 C.3     2  ASP2        0.0138
     54 C         -12.3123  -10.2498  -12.3343 C.ar    1  UNK1       -0.0600
     55 C         -14.0681   -8.9256  -11.3697 C.ar    1  UNK1       -0.0600
     56 C         -17.7618   -5.5920    2.0471 C.ar    3  UNK3        0.0189
     57 CE3       -12.7223   -5.6016    4.9784 C.ar    5  TRP5       -0.0523
     58 C         -13.1283   -9.1260  -12.3755 C.ar    1  UNK1       -0.0616
     59 CZ2       -13.0611   -3.5377    3.0807 C.ar    5  TRP5       -0.0378
     60 CG        -10.6099  -13.1740    0.5557 C.2     6  ASP6        0.0440
     61 CZ3       -13.1568   -4.3301    5.3731 C.ar    5  TRP5       -0.0611
     62 C         -18.6577   -4.6255    1.6226 C.ar    3  UNK3       -0.0493
     63 CH2       -13.3181   -3.3132    4.4363 C.ar    5  TRP5       -0.0598
     64 CG        -17.8596   -8.5363   -3.1527 C.2     2  ASP2        0.0440
     65 C         -18.4340   -3.3616    2.2404 C.ar    3  UNK3       -0.0544
     66 C         -17.3769   -3.4001    3.1202 C.ar    3  UNK3       -0.0240
     67 H         -13.5924  -10.7058   -1.9211 H       1  UNK1        0.1495
     68 H         -14.4144   -8.4545    3.0596 H       5  TRP5        0.1495
     69 H         -15.9543   -8.9686    1.6779 H       4  LEU4        0.1495
     70 H         -11.1178  -11.0726    1.7954 H       6  ASP6        0.1495
     71 H         -15.3749   -9.3862   -2.4673 H       2  ASP2        0.1495
     72 H         -16.3472   -6.0391    0.1797 H       3  UNK3        0.1498
     73 HE1       -12.3787   -4.8066    0.5896 H       5  TRP5        0.1653
     74 H         -14.4177  -10.1337   -7.1797 H       1  UNK1        0.0480
     75 H         -15.1972  -11.4464   -6.2812 H       1  UNK1        0.0480
     76 H         -12.7547  -13.4748   -6.9411 H       1  UNK1        0.0480
     77 H         -11.2815  -12.5838   -6.5785 H       1  UNK1        0.0480
     78 H         -14.7826  -13.0344   -8.0770 H       1  UNK1        0.0479
     79 H         -15.5291  -11.6424   -8.8079 H       1  UNK1        0.0479
     80 H         -11.4999  -11.2240   -8.5854 H       1  UNK1        0.0479
     81 H         -11.5788  -12.9383   -9.0432 H       1  UNK1        0.0479
     82 H         -14.4120  -10.4948   -4.2730 H       1  UNK1        0.0381
     83 H         -13.8873   -9.0979   -5.2391 H       1  UNK1        0.0381
     84 H         -11.9296   -8.8260   -3.5599 H       1  UNK1        0.0599
     85 HA        -16.8533   -9.9055    4.3719 H       4  LEU4        0.0594
     86 HB1       -16.0829  -11.4260    1.8105 H       4  LEU4        0.0290
     87 HB2       -17.7307  -11.0622    2.2796 H       4  LEU4        0.0290
     88 HA        -12.2532  -10.3782    3.6910 H       5  TRP5        0.0598
     89 HG        -15.8049  -12.9619    3.7048 H       4  LEU4        0.0296
     90 HB1       -10.6137   -8.6170    3.0350 H       5  TRP5        0.0337
     91 HB2       -11.4557   -8.2501    4.5268 H       5  TRP5        0.0337
     92 HA        -12.7231  -11.6535   -0.1713 H       6  ASP6        0.0598
     93 HA        -15.4606   -6.5606   -1.6516 H       2  ASP2        0.0598
     94 HD21      -18.6613  -12.1800    4.4927 H       4  LEU4        0.0232
     95 HD22      -17.1913  -11.9063    5.4483 H       4  LEU4        0.0232
     96 HD23      -17.7580  -13.5496    5.1622 H       4  LEU4        0.0232
     97 HD11      -18.4120  -13.4693    2.1950 H       4  LEU4        0.0232
     98 HD12      -17.3990  -14.6881    2.9876 H       4  LEU4        0.0232
     99 HD13      -16.7787  -13.8000    1.5900 H       4  LEU4        0.0232
    100 H         -18.5837   -7.3096    1.0614 H       3  UNK3        0.0651
    101 H         -11.7953  -12.0399  -11.2794 H       1  UNK1        0.0636
    102 H         -14.9193   -9.6299   -9.5474 H       1  UNK1        0.0636
    103 HB1        -9.6532  -11.5378   -0.4309 H       6  ASP6        0.0348
    104 HB2       -10.7213  -12.4694   -1.4836 H       6  ASP6        0.0348
    105 HD1       -11.6008   -7.1660    0.6817 H       5  TRP5        0.0810
    106 HB1       -16.6621   -6.8874   -3.7693 H       2  ASP2        0.0348
    107 HB2       -17.7701   -6.5049   -2.4471 H       2  ASP2        0.0348
    108 H         -11.5774  -10.4227  -13.1147 H       1  UNK1        0.0618
    109 H         -14.7055   -8.0456  -11.3862 H       1  UNK1        0.0618
    110 HE3       -12.6061   -6.3906    5.7153 H       5  TRP5        0.0624
    111 H         -13.0316   -8.4078  -13.1839 H       1  UNK1        0.0618
    112 HZ2       -13.2004   -2.7507    2.3476 H       5  TRP5        0.0638
    113 HZ3       -13.3752   -4.1444    6.4204 H       5  TRP5        0.0618
    114 H         -19.4250   -4.8186    0.8811 H       3  UNK3        0.0626
    115 HH2       -13.6606   -2.3339    4.7580 H       5  TRP5        0.0618
    116 H         -19.0150   -2.4700    2.0426 H       3  UNK3        0.0623
    117 H         -16.9823   -2.5946    3.7232 H       3  UNK3        0.0693
@<TRIPOS>BOND
     1     1    56   ar
     2     1    66   ar
     3     2    26    2
     4     3    35    2
     5     4    37    2
     6     5    39    2
     7     6    40    2
     8     7    48    2
     9     8    52    2
    10     9    60   ar
    11    10    60   ar
    12    11    64   ar
    13    12    64   ar
    14    13    22    1
    15    13    23    1
    16    14    24    1
    17    14    25    1
    18    14    32    1
    19    15    28    1
    20    15    40   am
    21    16    35   am
    22    16    31    1
    23    17    48   am
    24    17    29    1
    25    18    39   am
    26    18    36    1
    27    19    37   am
    28    19    41    1
    29    20    52   am
    30    20    44    1
    31    21    50   ar
    32    21    51   ar
    33    22    24    1
    34    23    25    1
    35    26    27    1
    36    26    13   am
    37    28    37    1
    38    28    27    1
    39    29    35    1
    40    29    30    1
    41    30    33    1
    42    31    39    1
    43    31    34    1
    44    32    45   ar
    45    32    46   ar
    46    33    43    1
    47    33    42    1
    48    34    38    1
    49    36    40    1
    50    36    49    1
    51    38    47   ar
    52    38    50   ar
    53    41    52    1
    54    41    53    1
    55    44    48    1
    56    44    56    1
    57    45    54   ar
    58    46    55   ar
    59    47    57   ar
    60    47    51   ar
    61    49    60    1
    62    51    59   ar
    63    53    64    1
    64    54    58   ar
    65    55    58   ar
    66    56    62   ar
    67    57    61   ar
    68    59    63   ar
    69    61    63   ar
    70    62    65   ar
    71    65    66   ar
    72    15    67    1
    73    16    68    1
    74    17    69    1
    75    18    70    1
    76    19    71    1
    77    20    72    1
    78    21    73    1
    79    22    74    1
    80    22    75    1
    81    23    76    1
    82    23    77    1
    83    24    78    1
    84    24    79    1
    85    25    80    1
    86    25    81    1
    87    27    82    1
    88    27    83    1
    89    28    84    1
    90    29    85    1
    91    30    86    1
    92    30    87    1
    93    31    88    1
    94    33    89    1
    95    34    90    1
    96    34    91    1
    97    36    92    1
    98    41    93    1
    99    42    94    1
   100    42    95    1
   101    42    96    1
   102    43    97    1
   103    43    98    1
   104    43    99    1
   105    44   100    1
   106    45   101    1
   107    46   102    1
   108    49   103    1
   109    49   104    1
   110    50   105    1
   111    53   106    1
   112    53   107    1
   113    54   108    1
   114    55   109    1
   115    57   110    1
   116    58   111    1
   117    59   112    1
   118    61   113    1
   119    62   114    1
   120    63   115    1
   121    65   116    1
   122    66   117    1
@<TRIPOS>MOLECULE
123882
 117 122 0 0 0
SMALL
GASTEIGER

@<TRIPOS>ATOM
      1 S         -16.5698   -4.8129    3.1349 S.2     3  UNK3       -0.0993
      2 O         -13.2384   -7.6770   -5.6622 O.2     1  UNK1       -0.2755
      3 O         -14.3403  -11.2664    4.4838 O.2     4  LEU4       -0.2738
      4 O         -13.4709   -6.8180   -2.4987 O.2     1  UNK1       -0.2737
      5 O         -13.5833   -9.5193    0.8223 O.2     5  TRP5       -0.2738
      6 O         -10.6152   -9.4199   -1.7285 O.2     6  ASP6       -0.2738
      7 O         -17.8842   -7.8647    3.8234 O.2     3  UNK3       -0.2734
      8 O         -16.8158   -9.0823   -0.1819 O.2     2  ASP2       -0.2737
      9 OD1       -10.4547  -12.7970    1.6999 O.co2   6  ASP6       -0.5497
     10 OD2       -10.6008  -14.3852    0.0564 O.co2   6  ASP6       -0.5497
     11 OD1       -19.3533   -8.6027   -2.7388 O.co2   2  ASP2       -0.5497
     12 OD2       -17.3939   -9.5493   -3.4613 O.co2   2  ASP2       -0.5497
     13 N         -14.1757   -9.3687   -6.8633 N.am    1  UNK1       -0.2984
     14 N         -14.3172  -10.3906   -9.5820 N.pl3   1  UNK1       -0.3269
     15 N         -12.7807  -10.0472   -2.1808 N.am    1  UNK1       -0.3020
     16 N         -13.9246   -9.2708    3.4452 N.am    5  TRP5       -0.3022
     17 N         -16.3671   -8.9656    2.5234 N.am    4  LEU4       -0.3022
     18 N         -11.5041  -10.4698    0.9900 N.am    6  ASP6       -0.3021
     19 N         -15.1776   -8.3346   -2.4806 N.am    2  ASP2       -0.3021
     20 N         -16.5605   -6.9217    0.4678 N.am    3  UNK3       -0.2984
     21 NE1       -12.9874   -5.0735    2.8433 N.ar    5  TRP5       -0.3604
     22 C         -14.3535   -8.4647   -8.0018 C.3     1  UNK1        0.0304
     23 C         -14.5716  -10.7662   -7.0865 C.3     1  UNK1        0.0304
     24 C         -15.0126   -9.1395   -9.2146 C.3     1  UNK1        0.0280
     25 C         -14.0231  -11.2958   -8.4326 C.3     1  UNK1        0.0280
     26 C         -13.6343   -8.8424   -5.6996 C.2     1  UNK1        0.2179
     27 C         -13.5240   -9.7721   -4.5063 C.3     1  UNK1        0.0510
     28 C         -12.9669   -9.0717   -3.2655 C.3     1  UNK1        0.1076
     29 CA        -16.2250  -10.1372    3.4050 C.3     4  LEU4        0.0997
     30 CB        -16.7574  -11.3665    2.6441 C.3     4  LEU4       -0.0236
     31 CA        -12.5507   -9.5587    3.0328 C.3     5  TRP5        0.1034
     32 C         -13.3361  -10.3869  -10.5823 C.ar    1  UNK1        0.0298
     33 CG        -16.8375  -12.6991    3.4131 C.3     4  LEU4       -0.0446
     34 CB        -11.5749   -8.4344    3.3996 C.3     5  TRP5        0.0013
     35 C         -14.7465  -10.3125    3.8250 C.2     4  LEU4        0.2340
     36 CA        -11.6217  -11.1386   -0.3066 C.3     6  ASP6        0.1045
     37 C         -13.8814   -7.9544   -2.7303 C.2     1  UNK1        0.2344
     38 CG        -11.9859   -7.0626    2.9436 C.ar    5  TRP5       -0.0201
     39 C         -12.6078   -9.8307    1.5103 C.2     5  TRP5        0.2343
     40 C         -11.6019  -10.1046   -1.4582 C.2     6  ASP6        0.2343
     41 CA        -16.1560   -7.4453   -1.8956 C.3     2  ASP2        0.1045
     42 CD2       -17.6575  -12.5925    4.6969 C.3     4  LEU4       -0.0626
     43 CD1       -17.4345  -13.7784    2.5027 C.3     4  LEU4       -0.0626
     44 C         -17.5152   -6.9740    1.5663 C.3     3  UNK3        0.1311
     45 C         -12.9008  -11.6025  -11.1397 C.ar    1  UNK1       -0.0407
     46 C         -12.7474   -9.2174  -11.0864 C.ar    1  UNK1       -0.0407
     47 CD2       -11.5827   -6.4017    1.7401 C.ar    5  TRP5        0.0029
     48 C         -17.2568   -7.9429    2.7642 C.2     3  UNK3        0.2390
     49 CB        -10.4708  -12.1124   -0.5466 C.3     6  ASP6        0.0138
     50 CD1       -12.8391   -6.1990    3.6054 C.ar    5  TRP5        0.0060
     51 CE2       -12.2227   -5.1622    1.7060 C.ar    5  TRP5        0.0467
     52 C         -16.5306   -7.9253   -0.4794 C.2     2  ASP2        0.2345
     53 CB        -17.4019   -7.2944   -2.7554 C.3     2  ASP2        0.0138
     54 C         -11.9171  -11.6517  -12.1345 C.ar    1  UNK1       -0.0600
     55 C         -11.7586   -9.2579  -12.0782 C.ar    1  UNK1       -0.0600
     56 C         -17.6752   -5.5400    2.0397 C.ar    3  UNK3        0.0189
     57 CE3       -10.7489   -6.7554    0.6616 C.ar    5  TRP5       -0.0523
     58 C         -11.3420  -10.4761  -12.6017 C.ar    1  UNK1       -0.0616
     59 CZ2       -12.0721   -4.2588    0.6470 C.ar    5  TRP5       -0.0378
     60 CG        -10.5217  -13.2088    0.5021 C.2     6  ASP6        0.0440
     61 CZ3       -10.5923   -5.8684   -0.4080 C.ar    5  TRP5       -0.0611
     62 C         -18.6184   -4.6233    1.6068 C.ar    3  UNK3       -0.0493
     63 CH2       -11.2440   -4.6383   -0.4129 C.ar    5  TRP5       -0.0598
     64 CG        -18.1154   -8.6218   -2.9894 C.2     2  ASP2        0.0440
     65 C         -18.4432   -3.3370    2.1921 C.ar    3  UNK3       -0.0544
     66 C         -17.3721   -3.3068    3.0553 C.ar    3  UNK3       -0.0240
     67 H         -13.6148  -10.2924   -1.6513 H       1  UNK1        0.1495
     68 H         -14.3888   -8.6005    2.8365 H       5  TRP5        0.1495
     69 H         -16.0753   -9.1006    1.5500 H       4  LEU4        0.1495
     70 H         -11.0018  -11.0648    1.6620 H       6  ASP6        0.1495
     71 H         -15.5631   -9.2395   -2.7626 H       2  ASP2        0.1495
     72 H         -16.2584   -6.0059    0.1629 H       3  UNK3        0.1498
     73 HE1       -13.5980   -4.3000    3.0632 H       5  TRP5        0.1653
     74 H         -13.3627   -8.0807   -8.2707 H       1  UNK1        0.0480
     75 H         -14.9595   -7.6118   -7.6742 H       1  UNK1        0.0480
     76 H         -15.6676  -10.7944   -7.0842 H       1  UNK1        0.0480
     77 H         -14.2294  -11.4166   -6.2788 H       1  UNK1        0.0480
     78 H         -16.0478   -9.4017   -8.9588 H       1  UNK1        0.0479
     79 H         -15.0988   -8.4443  -10.0571 H       1  UNK1        0.0479
     80 H         -12.9370  -11.4142   -8.3166 H       1  UNK1        0.0479
     81 H         -14.4513  -12.2845   -8.6327 H       1  UNK1        0.0479
     82 H         -12.8381  -10.5839   -4.7790 H       1  UNK1        0.0381
     83 H         -14.5052  -10.2159   -4.3086 H       1  UNK1        0.0381
     84 H         -12.0037   -8.6107   -3.5125 H       1  UNK1        0.0599
     85 HA        -16.8013   -9.9605    4.3178 H       4  LEU4        0.0594
     86 HB1       -16.1304  -11.5238    1.7546 H       4  LEU4        0.0290
     87 HB2       -17.7596  -11.1263    2.2617 H       4  LEU4        0.0290
     88 HA        -12.2205  -10.4857    3.5177 H       5  TRP5        0.0598
     89 HG        -15.8269  -13.0302    3.6751 H       4  LEU4        0.0296
     90 HB1       -10.5754   -8.6627    3.0102 H       5  TRP5        0.0337
     91 HB2       -11.4744   -8.4051    4.4934 H       5  TRP5        0.0337
     92 HA        -12.5743  -11.6850   -0.3147 H       6  ASP6        0.0598
     93 HA        -15.7040   -6.4508   -1.8071 H       2  ASP2        0.0598
     94 HD21      -18.6612  -12.2041    4.4957 H       4  LEU4        0.0232
     95 HD22      -17.1730  -11.9334    5.4235 H       4  LEU4        0.0232
     96 HD23      -17.7633  -13.5740    5.1716 H       4  LEU4        0.0232
     97 HD11      -18.4611  -13.5310    2.2116 H       4  LEU4        0.0232
     98 HD12      -17.4505  -14.7497    3.0084 H       4  LEU4        0.0232
     99 HD13      -16.8403  -13.8894    1.5892 H       4  LEU4        0.0232
    100 H         -18.4691   -7.3098    1.1357 H       3  UNK3        0.0651
    101 H         -13.3456  -12.5368  -10.8067 H       1  UNK1        0.0636
    102 H         -13.0158   -8.2415  -10.6958 H       1  UNK1        0.0636
    103 HB1        -9.4985  -11.6096   -0.4765 H       6  ASP6        0.0348
    104 HB2       -10.5429  -12.5448   -1.5524 H       6  ASP6        0.0348
    105 HD1       -13.3796   -6.3120    4.5361 H       5  TRP5        0.0810
    106 HB1       -17.1388   -6.8869   -3.7390 H       2  ASP2        0.0348
    107 HB2       -18.0951   -6.5870   -2.2831 H       2  ASP2        0.0348
    108 H         -11.6056  -12.6106  -12.5379 H       1  UNK1        0.0618
    109 H         -11.3111   -8.3317  -12.4283 H       1  UNK1        0.0618
    110 HE3       -10.2588   -7.7251    0.6282 H       5  TRP5        0.0624
    111 H         -10.5720  -10.5082  -13.3665 H       1  UNK1        0.0618
    112 HZ2       -12.5991   -3.3120    0.6268 H       5  TRP5        0.0638
    113 HZ3        -9.9858   -6.1702   -1.2588 H       5  TRP5        0.0618
    114 H         -19.3898   -4.8686    0.8849 H       3  UNK3        0.0626
    115 HH2       -11.1324   -3.9826   -1.2722 H       5  TRP5        0.0618
    116 H         -19.0693   -2.4784    1.9853 H       3  UNK3        0.0623
    117 H         -17.0135   -2.4695    3.6371 H       3  UNK3        0.0693
@<TRIPOS>BOND
     1     1    56   ar
     2     1    66   ar
     3     2    26    2
     4     3    35    2
     5     4    37    2
     6     5    39    2
     7     6    40    2
     8     7    48    2
     9     8    52    2
    10     9    60   ar
    11    10    60   ar
    12    11    64   ar
    13    12    64   ar
    14    13    22    1
    15    13    23    1
    16    14    24    1
    17    14    25    1
    18    14    32    1
    19    15    28    1
    20    15    40   am
    21    16    35   am
    22    16    31    1
    23    17    48   am
    24    17    29    1
    25    18    39   am
    26    18    36    1
    27    19    37   am
    28    19    41    1
    29    20    52   am
    30    20    44    1
    31    21    50   ar
    32    21    51   ar
    33    22    24    1
    34    23    25    1
    35    26    27    1
    36    26    13   am
    37    28    37    1
    38    28    27    1
    39    29    35    1
    40    29    30    1
    41    30    33    1
    42    31    39    1
    43    31    34    1
    44    32    45   ar
    45    32    46   ar
    46    33    43    1
    47    33    42    1
    48    34    38    1
    49    36    40    1
    50    36    49    1
    51    38    47   ar
    52    38    50   ar
    53    41    52    1
    54    41    53    1
    55    44    48    1
    56    44    56    1
    57    45    54   ar
    58    46    55   ar
    59    47    57   ar
    60    47    51   ar
    61    49    60    1
    62    51    59   ar
    63    53    64    1
    64    54    58   ar
    65    55    58   ar
    66    56    62   ar
    67    57    61   ar
    68    59    63   ar
    69    61    63   ar
    70    62    65   ar
    71    65    66   ar
    72    15    67    1
    73    16    68    1
    74    17    69    1
    75    18    70    1
    76    19    71    1
    77    20    72    1
    78    21    73    1
    79    22    74    1
    80    22    75    1
    81    23    76    1
    82    23    77    1
    83    24    78    1
    84    24    79    1
    85    25    80    1
    86    25    81    1
    87    27    82    1
    88    27    83    1
    89    28    84    1
    90    29    85    1
    91    30    86    1
    92    30    87    1
    93    31    88    1
    94    33    89    1
    95    34    90    1
    96    34    91    1
    97    36    92    1
    98    41    93    1
    99    42    94    1
   100    42    95    1
   101    42    96    1
   102    43    97    1
   103    43    98    1
   104    43    99    1
   105    44   100    1
   106    45   101    1
   107    46   102    1
   108    49   103    1
   109    49   104    1
   110    50   105    1
   111    53   106    1
   112    53   107    1
   113    54   108    1
   114    55   109    1
   115    57   110    1
   116    58   111    1
   117    59   112    1
   118    61   113    1
   119    62   114    1
   120    63   115    1
   121    65   116    1
   122    66   117    1
@<TRIPOS>MOLECULE
123882
 117 122 0 0 0
SMALL
GASTEIGER

@<TRIPOS>ATOM
      1 S         -18.2924   -5.0229    3.6411 S.2     3  UNK3       -0.0993
      2 O         -11.4144  -10.7770   -5.0712 O.2     1  UNK1       -0.2755
      3 O         -14.2787  -11.3253    4.4010 O.2     4  LEU4       -0.2738
      4 O         -13.7148   -6.9081   -3.2290 O.2     1  UNK1       -0.2737
      5 O         -13.4045   -9.0976    0.9060 O.2     5  TRP5       -0.2738
      6 O         -10.9136   -9.1174   -1.4659 O.2     6  ASP6       -0.2738
      7 O         -16.6851   -7.5248    4.0485 O.2     3  UNK3       -0.2734
      8 O         -17.2522   -8.9800   -0.2099 O.2     2  ASP2       -0.2737
      9 OD1       -10.5395  -12.8132    1.6968 O.co2   6  ASP6       -0.5497
     10 OD2       -10.8481  -14.3584    0.0399 O.co2   6  ASP6       -0.5497
     11 OD1       -19.0612   -8.6240   -3.3390 O.co2   2  ASP2       -0.5497
     12 OD2       -17.0215   -9.6562   -3.4967 O.co2   2  ASP2       -0.5497
     13 N         -13.1436  -11.5229   -6.3622 N.am    1  UNK1       -0.2984
     14 N         -13.4375  -11.9200   -9.2156 N.pl3   1  UNK1       -0.3269
     15 N         -12.7868  -10.1866   -2.2622 N.am    1  UNK1       -0.3020
     16 N         -13.9421   -9.2796    3.4404 N.am    5  TRP5       -0.3022
     17 N         -16.4443   -9.1049    2.4416 N.am    4  LEU4       -0.3022
     18 N         -11.5317  -10.4139    1.0758 N.am    6  ASP6       -0.3021
     19 N         -15.0116   -8.4712   -2.1639 N.am    2  ASP2       -0.3021
     20 N         -16.5898   -6.9331    0.5036 N.am    3  UNK3       -0.2984
     21 NE1        -8.1382   -8.9364    3.3094 N.ar    5  TRP5       -0.3604
     22 C         -14.4261  -11.2230   -7.0119 C.3     1  UNK1        0.0304
     23 C         -12.2891  -12.4910   -7.0504 C.3     1  UNK1        0.0304
     24 C         -14.6271  -11.9910   -8.3334 C.3     1  UNK1        0.0280
     25 C         -12.1272  -12.1285   -8.5336 C.3     1  UNK1        0.0280
     26 C         -12.6153  -10.7506   -5.3346 C.2     1  UNK1        0.2179
     27 C         -13.6073   -9.8853   -4.5753 C.3     1  UNK1        0.0510
     28 C         -12.9809   -9.2253   -3.3485 C.3     1  UNK1        0.1076
     29 CA        -16.2100  -10.2387    3.3561 C.3     4  LEU4        0.0997
     30 CB        -16.7200  -11.5115    2.6514 C.3     4  LEU4       -0.0236
     31 CA        -12.5158   -9.4520    3.1291 C.3     5  TRP5        0.1034
     32 C         -13.3757  -10.9886  -10.2590 C.ar    1  UNK1        0.0298
     33 CG        -16.8127  -12.8055    3.4818 C.3     4  LEU4       -0.0446
     34 CB        -11.7393   -8.2066    3.5563 C.3     5  TRP5        0.0013
     35 C         -14.7194  -10.3696    3.7682 C.2     4  LEU4        0.2340
     36 CA        -11.7422  -11.0576   -0.2176 C.3     6  ASP6        0.1045
     37 C         -13.8952   -8.0752   -2.8761 C.2     1  UNK1        0.2344
     38 CG        -10.2619   -8.2609    3.3233 C.ar    5  TRP5       -0.0201
     39 C         -12.5264   -9.6257    1.5975 C.2     5  TRP5        0.2343
     40 C         -11.7568  -10.0064   -1.3512 C.2     6  ASP6        0.2343
     41 CA        -16.0566   -7.5297   -1.8114 C.3     2  ASP2        0.1045
     42 CD2       -17.6315  -12.6332    4.7592 C.3     4  LEU4       -0.0626
     43 CD1       -17.4256  -13.9163    2.6201 C.3     4  LEU4       -0.0626
     44 C         -17.3834   -6.9284    1.7327 C.3     3  UNK3        0.1311
     45 C         -12.4378  -11.1677  -11.2930 C.ar    1  UNK1       -0.0407
     46 C         -14.1977   -9.8571  -10.3381 C.ar    1  UNK1       -0.0407
     47 CD2        -9.4787   -7.3142    2.5845 C.ar    5  TRP5        0.0029
     48 C         -16.7652   -7.8257    2.8592 C.2     3  UNK3        0.2390
     49 CB        -10.6572  -12.0806   -0.5370 C.3     6  ASP6        0.0138
     50 CD1        -9.3900   -9.2314    3.7762 C.ar    5  TRP5        0.0060
     51 CE2        -8.1546   -7.7527    2.6099 C.ar    5  TRP5        0.0467
     52 C         -16.7032   -7.9107   -0.4619 C.2     2  ASP2        0.2345
     53 CB        -17.1176   -7.3743   -2.8933 C.3     2  ASP2        0.0138
     54 C         -12.3114  -10.2541  -12.3438 C.ar    1  UNK1       -0.0600
     55 C         -14.0729   -8.9338  -11.3841 C.ar    1  UNK1       -0.0600
     56 C         -17.6143   -5.4686    2.1209 C.ar    3  UNK3        0.0189
     57 CE3        -9.7777   -6.1294    1.8798 C.ar    5  TRP5       -0.0523
     58 C         -13.1283   -9.1311  -12.3863 C.ar    1  UNK1       -0.0616
     59 CZ2        -7.1142   -7.0609    1.9762 C.ar    5  TRP5       -0.0378
     60 CG        -10.6926  -13.1930    0.4967 C.2     6  ASP6        0.0440
     61 CZ3        -8.7516   -5.4275    1.2372 C.ar    5  TRP5       -0.0611
     62 C         -17.4762   -4.3379    1.3224 C.ar    3  UNK3       -0.0493
     63 CH2        -7.4386   -5.8871    1.2891 C.ar    5  TRP5       -0.0598
     64 CG        -17.8018   -8.6890   -3.2539 C.2     2  ASP2        0.0440
     65 C         -17.8128   -3.1268    1.9913 C.ar    3  UNK3       -0.0544
     66 C         -18.2362   -3.3572    3.2773 C.ar    3  UNK3       -0.0240
     67 H         -13.6042  -10.6760   -1.9192 H       1  UNK1        0.1495
     68 H         -14.4124   -8.6605    2.7864 H       5  TRP5        0.1495
     69 H         -16.5733   -9.3241    1.4497 H       4  LEU4        0.1495
     70 H         -11.0505  -11.0366    1.7361 H       6  ASP6        0.1495
     71 H         -15.3893   -9.3967   -2.3814 H       2  ASP2        0.1495
     72 H         -15.7725   -6.3375    0.4584 H       3  UNK3        0.1498
     73 HE1        -7.3230   -9.5180    3.4372 H       5  TRP5        0.1653
     74 H         -14.4571  -10.1458   -7.2069 H       1  UNK1        0.0480
     75 H         -15.2327  -11.4627   -6.3111 H       1  UNK1        0.0480
     76 H         -12.7685  -13.4722   -6.9483 H       1  UNK1        0.0480
     77 H         -11.3057  -12.5682   -6.5758 H       1  UNK1        0.0480
     78 H         -14.7917  -13.0513   -8.1004 H       1  UNK1        0.0479
     79 H         -15.5425  -11.6664   -8.8411 H       1  UNK1        0.0479
     80 H         -11.5199  -11.2145   -8.5880 H       1  UNK1        0.0479
     81 H         -11.5793  -12.9304   -9.0417 H       1  UNK1        0.0479
     82 H         -14.4588  -10.5084   -4.2800 H       1  UNK1        0.0381
     83 H         -13.9678   -9.1086   -5.2597 H       1  UNK1        0.0381
     84 H         -12.0131   -8.7756   -3.6009 H       1  UNK1        0.0599
     85 HA        -16.7788  -10.0413    4.2704 H       4  LEU4        0.0594
     86 HB1       -16.0822  -11.7071    1.7775 H       4  LEU4        0.0290
     87 HB2       -17.7199  -11.2975    2.2463 H       4  LEU4        0.0290
     88 HA        -12.1371  -10.3623    3.6059 H       5  TRP5        0.0598
     89 HG        -15.8055  -13.1347    3.7584 H       4  LEU4        0.0296
     90 HB1       -11.9030   -8.0366    4.6294 H       5  TRP5        0.0337
     91 HB2       -12.1593   -7.3264    3.0526 H       5  TRP5        0.0337
     92 HA        -12.7203  -11.5543   -0.1679 H       6  ASP6        0.0598
     93 HA        -15.5823   -6.5477   -1.6856 H       2  ASP2        0.0598
     94 HD21      -18.6294  -12.2380    4.5415 H       4  LEU4        0.0232
     95 HD22      -17.1369  -11.9526    5.4587 H       4  LEU4        0.0232
     96 HD23      -17.7532  -13.5925    5.2740 H       4  LEU4        0.0232
     97 HD11      -18.4514  -13.6702    2.3241 H       4  LEU4        0.0232
     98 HD12      -17.4501  -14.8654    3.1660 H       4  LEU4        0.0232
     99 HD13      -16.8384  -14.0713    1.7086 H       4  LEU4        0.0232
    100 H         -18.3634   -7.3674    1.4999 H       3  UNK3        0.0651
    101 H         -11.7962  -12.0452  -11.2892 H       1  UNK1        0.0636
    102 H         -14.9309   -9.6429   -9.5669 H       1  UNK1        0.0636
    103 HB1        -9.6614  -11.6212   -0.5211 H       6  ASP6        0.0348
    104 HB2       -10.8074  -12.4942   -1.5418 H       6  ASP6        0.0348
    105 HD1        -9.5625  -10.1351    4.3471 H       5  TRP5        0.0810
    106 HB1       -16.6674   -6.9816   -3.8133 H       2  ASP2        0.0348
    107 HB2       -17.8725   -6.6480   -2.5667 H       2  ASP2        0.0348
    108 H         -11.5729  -10.4242  -13.1210 H       1  UNK1        0.0618
    109 H         -14.7107   -8.0542  -11.4009 H       1  UNK1        0.0618
    110 HE3       -10.8017   -5.7761    1.8092 H       5  TRP5        0.0624
    111 H         -13.0287   -8.4105  -13.1923 H       1  UNK1        0.0618
    112 HZ2        -6.0961   -7.4330    1.9934 H       5  TRP5        0.0638
    113 HZ3        -8.9925   -4.5303    0.6740 H       5  TRP5        0.0618
    114 H         -17.1493   -4.3745    0.2892 H       3  UNK3        0.0626
    115 HH2        -6.6587   -5.3396    0.7670 H       5  TRP5        0.0618
    116 H         -17.7533   -2.1421    1.5453 H       3  UNK3        0.0623
    117 H         -18.5472   -2.6300    4.0136 H       3  UNK3        0.0693
@<TRIPOS>BOND
     1     1    56   ar
     2     1    66   ar
     3     2    26    2
     4     3    35    2
     5     4    37    2
     6     5    39    2
     7     6    40    2
     8     7    48    2
     9     8    52    2
    10     9    60   ar
    11    10    60   ar
    12    11    64   ar
    13    12    64   ar
    14    13    22    1
    15    13    23    1
    16    14    24    1
    17    14    25    1
    18    14    32    1
    19    15    28    1
    20    15    40   am
    21    16    35   am
    22    16    31    1
    23    17    48   am
    24    17    29    1
    25    18    39   am
    26    18    36    1
    27    19    37   am
    28    19    41    1
    29    20    52   am
    30    20    44    1
    31    21    50   ar
    32    21    51   ar
    33    22    24    1
    34    23    25    1
    35    26    27    1
    36    26    13   am
    37    28    37    1
    38    28    27    1
    39    29    35    1
    40    29    30    1
    41    30    33    1
    42    31    39    1
    43    31    34    1
    44    32    45   ar
    45    32    46   ar
    46    33    43    1
    47    33    42    1
    48    34    38    1
    49    36    40    1
    50    36    49    1
    51    38    47   ar
    52    38    50   ar
    53    41    52    1
    54    41    53    1
    55    44    48    1
    56    44    56    1
    57    45    54   ar
    58    46    55   ar
    59    47    57   ar
    60    47    51   ar
    61    49    60    1
    62    51    59   ar
    63    53    64    1
    64    54    58   ar
    65    55    58   ar
    66    56    62   ar
    67    57    61   ar
    68    59    63   ar
    69    61    63   ar
    70    62    65   ar
    71    65    66   ar
    72    15    67    1
    73    16    68    1
    74    17    69    1
    75    18    70    1
    76    19    71    1
    77    20    72    1
    78    21    73    1
    79    22    74    1
    80    22    75    1
    81    23    76    1
    82    23    77    1
    83    24    78    1
    84    24    79    1
    85    25    80    1
    86    25    81    1
    87    27    82    1
    88    27    83    1
    89    28    84    1
    90    29    85    1
    91    30    86    1
    92    30    87    1
    93    31    88    1
    94    33    89    1
    95    34    90    1
    96    34    91    1
    97    36    92    1
    98    41    93    1
    99    42    94    1
   100    42    95    1
   101    42    96    1
   102    43    97    1
   103    43    98    1
   104    43    99    1
   105    44   100    1
   106    45   101    1
   107    46   102    1
   108    49   103    1
   109    49   104    1
   110    50   105    1
   111    53   106    1
   112    53   107    1
   113    54   108    1
   114    55   109    1
   115    57   110    1
   116    58   111    1
   117    59   112    1
   118    61   113    1
   119    62   114    1
   120    63   115    1
   121    65   116    1
   122    66   117    1
@<TRIPOS>MOLECULE
123882
 117 122 0 0 0
SMALL
GASTEIGER

@<TRIPOS>ATOM
      1 S         -18.2398   -4.9997    3.6512 S.2     3  UNK3       -0.0993
      2 O         -11.4214  -10.7576   -5.0927 O.2     1  UNK1       -0.2755
      3 O         -14.2588  -11.3110    4.4158 O.2     4  LEU4       -0.2738
      4 O         -13.7099   -6.9117   -3.2135 O.2     1  UNK1       -0.2737
      5 O         -13.3839   -9.0722    0.9015 O.2     5  TRP5       -0.2738
      6 O         -10.9407   -9.1344   -1.4682 O.2     6  ASP6       -0.2738
      7 O         -16.7126   -7.5366    4.0611 O.2     3  UNK3       -0.2734
      8 O         -17.2436   -8.9869   -0.2009 O.2     2  ASP2       -0.2737
      9 OD1       -10.6902  -12.9104    1.6645 O.co2   6  ASP6       -0.5497
     10 OD2       -10.9351  -14.4052   -0.0478 O.co2   6  ASP6       -0.5497
     11 OD1       -19.0818   -8.6128   -3.3065 O.co2   2  ASP2       -0.5497
     12 OD2       -17.0476   -9.6481   -3.4942 O.co2   2  ASP2       -0.5497
     13 N         -13.1524  -11.5275   -6.3674 N.am    1  UNK1       -0.2984
     14 N         -13.4380  -11.9228   -9.2209 N.pl3   1  UNK1       -0.3269
     15 N         -12.8082  -10.2006   -2.2736 N.am    1  UNK1       -0.3020
     16 N         -13.9288   -9.2729    3.4367 N.am    5  TRP5       -0.3022
     17 N         -16.4277   -9.1014    2.4480 N.am    4  LEU4       -0.3022
     18 N         -11.5540  -10.4469    1.0749 N.am    6  ASP6       -0.3021
     19 N         -15.0246   -8.4764   -2.1727 N.am    2  ASP2       -0.3021
     20 N         -16.5846   -6.9385    0.5105 N.am    3  UNK3       -0.2984
     21 NE1        -8.0931   -8.6186    3.5949 N.ar    5  TRP5       -0.3604
     22 C         -14.4354  -11.2330   -7.0187 C.3     1  UNK1        0.0304
     23 C         -12.2943  -12.4940   -7.0534 C.3     1  UNK1        0.0304
     24 C         -14.6299  -11.9985   -8.3423 C.3     1  UNK1        0.0280
     25 C         -12.1291  -12.1306   -8.5359 C.3     1  UNK1        0.0280
     26 C         -12.6245  -10.7452   -5.3474 C.2     1  UNK1        0.2179
     27 C         -13.6197   -9.8844   -4.5870 C.3     1  UNK1        0.0510
     28 C         -12.9949   -9.2330   -3.3553 C.3     1  UNK1        0.1076
     29 CA        -16.1928  -10.2371    3.3611 C.3     4  LEU4        0.0997
     30 CB        -16.6968  -11.5094    2.6519 C.3     4  LEU4       -0.0236
     31 CA        -12.5017   -9.4357    3.1236 C.3     5  TRP5        0.1034
     32 C         -13.3751  -10.9890  -10.2620 C.ar    1  UNK1        0.0298
     33 CG        -16.7926  -12.8037    3.4811 C.3     4  LEU4       -0.0446
     34 CB        -11.7461   -8.1700    3.5280 C.3     5  TRP5        0.0013
     35 C         -14.7019  -10.3618    3.7756 C.2     4  LEU4        0.2340
     36 CA        -11.7777  -11.0770   -0.2237 C.3     6  ASP6        0.1045
     37 C         -13.9030   -8.0814   -2.8762 C.2     1  UNK1        0.2344
     38 CG        -10.2671   -8.2184    3.3156 C.ar    5  TRP5       -0.0201
     39 C         -12.5225   -9.6259    1.5945 C.2     5  TRP5        0.2343
     40 C         -11.7833  -10.0236   -1.3562 C.2     6  ASP6        0.2343
     41 CA        -16.0622   -7.5315   -1.8079 C.3     2  ASP2        0.1045
     42 CD2       -17.6177  -12.6328    4.7548 C.3     4  LEU4       -0.0626
     43 CD1       -17.4011  -13.9140    2.6157 C.3     4  LEU4       -0.0626
     44 C         -17.3801   -6.9299    1.7385 C.3     3  UNK3        0.1311
     45 C         -12.4362  -11.1659  -11.2954 C.ar    1  UNK1       -0.0407
     46 C         -14.1970   -9.8573  -10.3391 C.ar    1  UNK1       -0.0407
     47 CD2        -9.5501   -7.6828    2.1966 C.ar    5  TRP5        0.0029
     48 C         -16.7681   -7.8279    2.8682 C.2     3  UNK3        0.2390
     49 CB        -10.7086  -12.1141   -0.5511 C.3     6  ASP6        0.0138
     50 CD1        -9.3293   -8.7786    4.1606 C.ar    5  TRP5        0.0060
     51 CE2        -8.1939   -7.9286    2.4098 C.ar    5  TRP5        0.0467
     52 C         -16.6992   -7.9158   -0.4550 C.2     2  ASP2        0.2345
     53 CB        -17.1321   -7.3681   -2.8798 C.3     2  ASP2        0.0138
     54 C         -12.3086  -10.2498  -12.3441 C.ar    1  UNK1       -0.0600
     55 C         -14.0707   -8.9314  -11.3828 C.ar    1  UNK1       -0.0600
     56 C         -17.6085   -5.4660    2.1177 C.ar    3  UNK3        0.0189
     57 CE3        -9.9346   -7.0290    1.0112 C.ar    5  TRP5       -0.0523
     58 C         -13.1253   -9.1264  -12.3844 C.ar    1  UNK1       -0.0616
     59 CZ2        -7.2012   -7.5365    1.5024 C.ar    5  TRP5       -0.0378
     60 CG        -10.7922  -13.2546    0.4489 C.2     6  ASP6        0.0440
     61 CZ3        -8.9584   -6.6420    0.0865 C.ar    5  TRP5       -0.0611
     62 C         -17.5022   -4.3462    1.2983 C.ar    3  UNK3       -0.0493
     63 CH2        -7.6114   -6.8871    0.3335 C.ar    5  TRP5       -0.0598
     64 CG        -17.8226   -8.6790   -3.2381 C.2     2  ASP2        0.0440
     65 C         -17.8235   -3.1266    1.9590 C.ar    3  UNK3       -0.0544
     66 C         -18.2059   -3.3398    3.2606 C.ar    3  UNK3       -0.0240
     67 H         -13.6268  -10.6935   -1.9388 H       1  UNK1        0.1495
     68 H         -14.4049   -8.6589    2.7804 H       5  TRP5        0.1495
     69 H         -16.5505   -9.3194    1.4552 H       4  LEU4        0.1495
     70 H         -11.1043  -11.0932    1.7346 H       6  ASP6        0.1495
     71 H         -15.4085   -9.3977   -2.3976 H       2  ASP2        0.1495
     72 H         -15.7774   -6.3299    0.4565 H       3  UNK3        0.1498
     73 HE1        -7.2293   -8.9745    3.9749 H       5  TRP5        0.1653
     74 H         -14.4722  -10.1554   -7.2106 H       1  UNK1        0.0480
     75 H         -15.2413  -11.4791   -6.3195 H       1  UNK1        0.0480
     76 H         -12.7723  -13.4761   -6.9527 H       1  UNK1        0.0480
     77 H         -11.3124  -12.5698   -6.5756 H       1  UNK1        0.0480
     78 H         -14.7929  -13.0596   -8.1121 H       1  UNK1        0.0479
     79 H         -15.5445  -11.6749   -8.8520 H       1  UNK1        0.0479
     80 H         -11.5222  -11.2163   -8.5885 H       1  UNK1        0.0479
     81 H         -11.5795  -12.9319   -9.0432 H       1  UNK1        0.0479
     82 H         -14.4728  -10.5081   -4.2969 H       1  UNK1        0.0381
     83 H         -13.9775   -9.1040   -5.2684 H       1  UNK1        0.0381
     84 H         -12.0245   -8.7860   -3.6027 H       1  UNK1        0.0599
     85 HA        -16.7644  -10.0438    4.2744 H       4  LEU4        0.0594
     86 HB1       -16.0541  -11.7032    1.7811 H       4  LEU4        0.0290
     87 HB2       -17.6948  -11.2964    2.2416 H       4  LEU4        0.0290
     88 HA        -12.1060  -10.3310    3.6134 H       5  TRP5        0.0598
     89 HG        -15.7862  -13.1317    3.7623 H       4  LEU4        0.0296
     90 HB1       -11.9328   -7.9705    4.5911 H       5  TRP5        0.0337
     91 HB2       -12.1586   -7.3009    2.9940 H       5  TRP5        0.0337
     92 HA        -12.7633  -11.5585   -0.1727 H       6  ASP6        0.0598
     93 HA        -15.5832   -6.5520   -1.6825 H       2  ASP2        0.0598
     94 HD21      -18.6141  -12.2363    4.5328 H       4  LEU4        0.0232
     95 HD22      -17.1262  -11.9538    5.4578 H       4  LEU4        0.0232
     96 HD23      -17.7429  -13.5928    5.2675 H       4  LEU4        0.0232
     97 HD11      -18.4259  -13.6680    2.3156 H       4  LEU4        0.0232
     98 HD12      -17.4276  -14.8635    3.1606 H       4  LEU4        0.0232
     99 HD13      -16.8102  -14.0678    1.7064 H       4  LEU4        0.0232
    100 H         -18.3607   -7.3661    1.5042 H       3  UNK3        0.0651
    101 H         -11.7947  -12.0436  -11.2928 H       1  UNK1        0.0636
    102 H         -14.9306   -9.6447   -9.5679 H       1  UNK1        0.0636
    103 HB1        -9.7036  -11.6776   -0.5017 H       6  ASP6        0.0348
    104 HB2       -10.8465  -12.4971   -1.5698 H       6  ASP6        0.0348
    105 HD1        -9.4412   -9.3019    5.1006 H       5  TRP5        0.0810
    106 HB1       -16.6888   -6.9745   -3.8026 H       2  ASP2        0.0348
    107 HB2       -17.8819   -6.6404   -2.5441 H       2  ASP2        0.0348
    108 H         -11.5692  -10.4183  -13.1213 H       1  UNK1        0.0618
    109 H         -14.7083   -8.0516  -11.3981 H       1  UNK1        0.0618
    110 HE3       -10.9850   -6.8714    0.7782 H       5  TRP5        0.0624
    111 H         -13.0247   -8.4042  -13.1888 H       1  UNK1        0.0618
    112 HZ2        -6.1546   -7.7561    1.6779 H       5  TRP5        0.0638
    113 HZ3        -9.2703   -6.1849   -0.8494 H       5  TRP5        0.0618
    114 H         -17.2076   -4.3973    0.2560 H       3  UNK3        0.0626
    115 HH2        -6.8732   -6.6009   -0.4103 H       5  TRP5        0.0618
    116 H         -17.7829   -2.1486    1.4966 H       3  UNK3        0.0623
    117 H         -18.4986   -2.6031    3.9952 H       3  UNK3        0.0693
@<TRIPOS>BOND
     1     1    56   ar
     2     1    66   ar
     3     2    26    2
     4     3    35    2
     5     4    37    2
     6     5    39    2
     7     6    40    2
     8     7    48    2
     9     8    52    2
    10     9    60   ar
    11    10    60   ar
    12    11    64   ar
    13    12    64   ar
    14    13    22    1
    15    13    23    1
    16    14    24    1
    17    14    25    1
    18    14    32    1
    19    15    28    1
    20    15    40   am
    21    16    35   am
    22    16    31    1
    23    17    48   am
    24    17    29    1
    25    18    39   am
    26    18    36    1
    27    19    37   am
    28    19    41    1
    29    20    52   am
    30    20    44    1
    31    21    50   ar
    32    21    51   ar
    33    22    24    1
    34    23    25    1
    35    26    27    1
    36    26    13   am
    37    28    37    1
    38    28    27    1
    39    29    35    1
    40    29    30    1
    41    30    33    1
    42    31    39    1
    43    31    34    1
    44    32    45   ar
    45    32    46   ar
    46    33    43    1
    47    33    42    1
    48    34    38    1
    49    36    40    1
    50    36    49    1
    51    38    47   ar
    52    38    50   ar
    53    41    52    1
    54    41    53    1
    55    44    48    1
    56    44    56    1
    57    45    54   ar
    58    46    55   ar
    59    47    57   ar
    60    47    51   ar
    61    49    60    1
    62    51    59   ar
    63    53    64    1
    64    54    58   ar
    65    55    58   ar
    66    56    62   ar
    67    57    61   ar
    68    59    63   ar
    69    61    63   ar
    70    62    65   ar
    71    65    66   ar
    72    15    67    1
    73    16    68    1
    74    17    69    1
    75    18    70    1
    76    19    71    1
    77    20    72    1
    78    21    73    1
    79    22    74    1
    80    22    75    1
    81    23    76    1
    82    23    77    1
    83    24    78    1
    84    24    79    1
    85    25    80    1
    86    25    81    1
    87    27    82    1
    88    27    83    1
    89    28    84    1
    90    29    85    1
    91    30    86    1
    92    30    87    1
    93    31    88    1
    94    33    89    1
    95    34    90    1
    96    34    91    1
    97    36    92    1
    98    41    93    1
    99    42    94    1
   100    42    95    1
   101    42    96    1
   102    43    97    1
   103    43    98    1
   104    43    99    1
   105    44   100    1
   106    45   101    1
   107    46   102    1
   108    49   103    1
   109    49   104    1
   110    50   105    1
   111    53   106    1
   112    53   107    1
   113    54   108    1
   114    55   109    1
   115    57   110    1
   116    58   111    1
   117    59   112    1
   118    61   113    1
   119    62   114    1
   120    63   115    1
   121    65   116    1
   122    66   117    1
@<TRIPOS>MOLECULE
123882
 117 122 0 0 0
SMALL
GASTEIGER

@<TRIPOS>ATOM
      1 S         -18.9719   -4.9001    2.2725 S.2     3  UNK3       -0.0993
      2 O         -12.7350   -7.7236   -5.9268 O.2     1  UNK1       -0.2755
      3 O         -14.3045  -11.3061    4.3124 O.2     4  LEU4       -0.2738
      4 O         -13.5104   -6.7587   -2.6214 O.2     1  UNK1       -0.2737
      5 O         -13.6049   -9.3014    0.9927 O.2     5  TRP5       -0.2738
      6 O         -11.0123   -8.7731   -1.1002 O.2     6  ASP6       -0.2738
      7 O         -17.0540   -7.5046    3.7185 O.2     3  UNK3       -0.2734
      8 O         -16.7631   -9.0734   -0.4242 O.2     2  ASP2       -0.2737
      9 OD1       -12.1231  -12.5075   -2.4475 O.co2   6  ASP6       -0.5497
     10 OD2       -10.1570  -13.6295   -2.1730 O.co2   6  ASP6       -0.5497
     11 OD1       -16.7619   -6.6501   -4.9450 O.co2   2  ASP2       -0.5497
     12 OD2       -18.9267   -6.4762   -4.2623 O.co2   2  ASP2       -0.5497
     13 N         -14.2748   -9.1699   -6.8177 N.am    1  UNK1       -0.2984
     14 N         -16.5978   -9.7809   -8.5397 N.pl3   1  UNK1       -0.3269
     15 N         -12.5753   -9.9504   -2.3283 N.am    1  UNK1       -0.3020
     16 N         -13.9292   -9.1805    3.5381 N.am    5  TRP5       -0.3022
     17 N         -16.3632   -9.0766    2.2454 N.am    4  LEU4       -0.3022
     18 N         -11.6251  -10.4475    1.1037 N.am    6  ASP6       -0.3021
     19 N         -15.0890   -8.4220   -2.7048 N.am    2  ASP2       -0.3021
     20 N         -16.4647   -6.8796    0.1046 N.am    3  UNK3       -0.2984
     21 NE1        -8.2682   -8.2438    2.1384 N.ar    5  TRP5       -0.3604
     22 C         -14.8777  -10.5071   -6.9010 C.3     1  UNK1        0.0304
     23 C         -14.7582   -8.1904   -7.7934 C.3     1  UNK1        0.0304
     24 C         -15.5161  -10.7554   -8.2784 C.3     1  UNK1        0.0280
     25 C         -16.2575   -8.3795   -8.1059 C.3     1  UNK1        0.0280
     26 C         -13.4022   -8.7526   -5.8241 C.2     1  UNK1        0.2179
     27 C         -13.2503   -9.6849   -4.6435 C.3     1  UNK1        0.0510
     28 C         -12.7689   -8.9631   -3.3847 C.3     1  UNK1        0.1076
     29 CA        -16.1779  -10.1364    3.2475 C.3     4  LEU4        0.0997
     30 CB        -16.8395  -11.4613    2.8086 C.3     4  LEU4       -0.0236
     31 CA        -12.5240   -9.3841    3.1558 C.3     5  TRP5        0.1034
     32 C         -17.9452  -10.1334   -8.3325 C.ar    1  UNK1        0.0298
     33 CG        -16.4055  -12.0724    1.4550 C.3     4  LEU4       -0.0446
     34 CB        -11.7037   -8.1271    3.4427 C.3     5  TRP5        0.0013
     35 C         -14.7152  -10.3067    3.7258 C.2     4  LEU4        0.2340
     36 CA        -11.7775  -10.9474   -0.2636 C.3     6  ASP6        0.1045
     37 C         -13.8080   -7.9250   -2.8752 C.2     1  UNK1        0.2344
     38 CG        -10.2384   -8.2820    3.1822 C.ar    5  TRP5       -0.0201
     39 C         -12.6288   -9.6819    1.6459 C.2     5  TRP5        0.2343
     40 C         -11.7260   -9.7645   -1.2612 C.2     6  ASP6        0.2343
     41 CA        -16.1968   -7.5746   -2.2672 C.3     2  ASP2        0.1045
     42 CD2       -15.0019  -12.6716    1.4790 C.3     4  LEU4       -0.0626
     43 CD1       -17.3991  -13.1637    1.0374 C.3     4  LEU4       -0.0626
     44 C         -17.2756   -6.9210    1.3239 C.3     3  UNK3        0.1311
     45 C         -18.9709   -9.1884   -8.5336 C.ar    1  UNK1       -0.0407
     46 C         -18.3660  -11.4165   -7.9452 C.ar    1  UNK1       -0.0407
     47 CD2        -9.2441   -8.8232    4.0584 C.ar    5  TRP5        0.0029
     48 C         -16.8362   -7.8177    2.5441 C.2     3  UNK3        0.2390
     49 CB        -10.7278  -11.9961   -0.5870 C.3     6  ASP6        0.0138
     50 CD1        -9.5908   -7.9245    2.0166 C.ar    5  TRP5        0.0060
     51 CE2        -8.0237   -8.7808    3.3809 C.ar    5  TRP5        0.0467
     52 C         -16.4857   -7.9294   -0.7868 C.2     2  ASP2        0.2345
     53 CB        -17.4836   -7.8652   -3.0401 C.3     2  ASP2        0.0138
     54 C         -20.3218   -9.4851   -8.3138 C.ar    1  UNK1       -0.0600
     55 C         -19.7179  -11.7261   -7.7304 C.ar    1  UNK1       -0.0600
     56 C         -17.4219   -5.4924    1.8208 C.ar    3  UNK3        0.0189
     57 CE3        -9.2680   -9.3547    5.3644 C.ar    5  TRP5       -0.0523
     58 C         -20.6964  -10.7572   -7.9074 C.ar    1  UNK1       -0.0616
     59 CZ2        -6.8262   -9.2367    3.9456 C.ar    5  TRP5       -0.0378
     60 CG        -11.0390  -12.7816   -1.8576 C.2     6  ASP6        0.0440
     61 CZ3        -8.0787   -9.8150    5.9439 C.ar    5  TRP5       -0.0611
     62 C         -16.4481   -4.5235    1.9976 C.ar    3  UNK3       -0.0493
     63 CH2        -6.8767   -9.7543    5.2430 C.ar    5  TRP5       -0.0598
     64 CG        -17.7362   -6.9012   -4.1888 C.2     2  ASP2        0.0440
     65 C         -16.9775   -3.3043    2.5114 C.ar    3  UNK3       -0.0544
     66 C         -18.3354   -3.3790    2.7195 C.ar    3  UNK3       -0.0240
     67 H         -12.7224  -10.9492   -2.5519 H       1  UNK1        0.1495
     68 H         -14.3976   -8.5114    2.9307 H       5  TRP5        0.1495
     69 H         -16.1253   -9.2750    1.2679 H       4  LEU4        0.1495
     70 H         -10.7032  -10.4345    1.5198 H       6  ASP6        0.1495
     71 H         -15.1778   -9.4181   -2.5466 H       2  ASP2        0.1495
     72 H         -16.3398   -5.9693   -0.3209 H       3  UNK3        0.1498
     73 HE1        -7.5765   -8.1142    1.4131 H       5  TRP5        0.1653
     74 H         -15.6378  -10.5826   -6.1149 H       1  UNK1        0.0480
     75 H         -14.1016  -11.2541   -6.7040 H       1  UNK1        0.0480
     76 H         -14.1625   -8.3273   -8.7044 H       1  UNK1        0.0480
     77 H         -14.5807   -7.1709   -7.4351 H       1  UNK1        0.0480
     78 H         -14.7534  -10.6171   -9.0567 H       1  UNK1        0.0479
     79 H         -15.8240  -11.7980   -8.3858 H       1  UNK1        0.0479
     80 H         -16.8203   -8.1263   -7.1996 H       1  UNK1        0.0479
     81 H         -16.5353   -7.6797   -8.9024 H       1  UNK1        0.0479
     82 H         -12.5256  -10.4576   -4.9293 H       1  UNK1        0.0381
     83 H         -14.1973  -10.1939   -4.4385 H       1  UNK1        0.0381
     84 H         -11.8225   -8.4406   -3.5641 H       1  UNK1        0.0599
     85 HA        -16.7090   -9.8201    4.1554 H       4  LEU4        0.0594
     86 HB1       -17.9204  -11.2696    2.7550 H       4  LEU4        0.0290
     87 HB2       -16.7046  -12.2136    3.5967 H       4  LEU4        0.0290
     88 HA        -12.1237  -10.2639    3.6723 H       5  TRP5        0.0598
     89 HG        -16.4339  -11.3054    0.6773 H       4  LEU4        0.0296
     90 HB1       -11.8441   -7.8368    4.4928 H       5  TRP5        0.0337
     91 HB2       -12.0869   -7.2855    2.8497 H       5  TRP5        0.0337
     92 HA        -12.7828  -11.3871   -0.3075 H       6  ASP6        0.0598
     93 HA        -15.9154   -6.5200   -2.3447 H       2  ASP2        0.0598
     94 HD21      -14.9050  -13.4350    2.2575 H       4  LEU4        0.0232
     95 HD22      -14.2458  -11.9079    1.6541 H       4  LEU4        0.0232
     96 HD23      -14.7631  -13.1395    0.5171 H       4  LEU4        0.0232
     97 HD11      -17.4144  -13.9857    1.7609 H       4  LEU4        0.0232
     98 HD12      -17.1321  -13.5783    0.0589 H       4  LEU4        0.0232
     99 HD13      -18.4135  -12.7592    0.9575 H       4  LEU4        0.0232
    100 H         -18.2590   -7.3093    1.0234 H       3  UNK3        0.0651
    101 H         -18.7316   -8.1756   -8.8469 H       1  UNK1        0.0636
    102 H         -17.6596  -12.2155   -7.7568 H       1  UNK1        0.0636
    103 HB1       -10.6540  -12.7177    0.2365 H       6  ASP6        0.0348
    104 HB2        -9.7417  -11.5282   -0.6990 H       6  ASP6        0.0348
    105 HD1        -9.9710   -7.4975    1.0941 H       5  TRP5        0.0810
    106 HB1       -18.3492   -7.7865   -2.3664 H       2  ASP2        0.0348
    107 HB2       -17.4916   -8.8863   -3.4391 H       2  ASP2        0.0348
    108 H         -21.0674   -8.7053   -8.4393 H       1  UNK1        0.0618
    109 H         -19.9939  -12.7233   -7.4001 H       1  UNK1        0.0618
    110 HE3       -10.2006   -9.4125    5.9177 H       5  TRP5        0.0624
    111 H         -21.7393  -10.9848   -7.7130 H       1  UNK1        0.0618
    112 HZ2        -5.8917   -9.1970    3.3961 H       5  TRP5        0.0638
    113 HZ3        -8.0988  -10.2286    6.9488 H       5  TRP5        0.0618
    114 H         -15.4000   -4.6864    1.7716 H       3  UNK3        0.0626
    115 HH2        -5.9643  -10.1210    5.7067 H       5  TRP5        0.0618
    116 H         -16.3886   -2.4208    2.7231 H       3  UNK3        0.0623
    117 H         -18.9902   -2.6125    3.1088 H       3  UNK3        0.0693
@<TRIPOS>BOND
     1     1    56   ar
     2     1    66   ar
     3     2    26    2
     4     3    35    2
     5     4    37    2
     6     5    39    2
     7     6    40    2
     8     7    48    2
     9     8    52    2
    10     9    60   ar
    11    10    60   ar
    12    11    64   ar
    13    12    64   ar
    14    13    22    1
    15    13    23    1
    16    14    24    1
    17    14    25    1
    18    14    32    1
    19    15    28    1
    20    15    40   am
    21    16    35   am
    22    16    31    1
    23    17    48   am
    24    17    29    1
    25    18    39   am
    26    18    36    1
    27    19    37   am
    28    19    41    1
    29    20    52   am
    30    20    44    1
    31    21    50   ar
    32    21    51   ar
    33    22    24    1
    34    23    25    1
    35    26    27    1
    36    26    13   am
    37    28    37    1
    38    28    27    1
    39    29    35    1
    40    29    30    1
    41    30    33    1
    42    31    39    1
    43    31    34    1
    44    32    45   ar
    45    32    46   ar
    46    33    43    1
    47    33    42    1
    48    34    38    1
    49    36    40    1
    50    36    49    1
    51    38    47   ar
    52    38    50   ar
    53    41    52    1
    54    41    53    1
    55    44    48    1
    56    44    56    1
    57    45    54   ar
    58    46    55   ar
    59    47    57   ar
    60    47    51   ar
    61    49    60    1
    62    51    59   ar
    63    53    64    1
    64    54    58   ar
    65    55    58   ar
    66    56    62   ar
    67    57    61   ar
    68    59    63   ar
    69    61    63   ar
    70    62    65   ar
    71    65    66   ar
    72    15    67    1
    73    16    68    1
    74    17    69    1
    75    18    70    1
    76    19    71    1
    77    20    72    1
    78    21    73    1
    79    22    74    1
    80    22    75    1
    81    23    76    1
    82    23    77    1
    83    24    78    1
    84    24    79    1
    85    25    80    1
    86    25    81    1
    87    27    82    1
    88    27    83    1
    89    28    84    1
    90    29    85    1
    91    30    86    1
    92    30    87    1
    93    31    88    1
    94    33    89    1
    95    34    90    1
    96    34    91    1
    97    36    92    1
    98    41    93    1
    99    42    94    1
   100    42    95    1
   101    42    96    1
   102    43    97    1
   103    43    98    1
   104    43    99    1
   105    44   100    1
   106    45   101    1
   107    46   102    1
   108    49   103    1
   109    49   104    1
   110    50   105    1
   111    53   106    1
   112    53   107    1
   113    54   108    1
   114    55   109    1
   115    57   110    1
   116    58   111    1
   117    59   112    1
   118    61   113    1
   119    62   114    1
   120    63   115    1
   121    65   116    1
   122    66   117    1
@<TRIPOS>MOLECULE
123882
 117 122 0 0 0
SMALL
GASTEIGER

@<TRIPOS>ATOM
      1 S         -18.9505   -4.8524    2.5069 S.2     3  UNK3       -0.0993
      2 O         -11.4046  -10.8321   -5.1032 O.2     1  UNK1       -0.2755
      3 O         -14.4447  -11.2917    4.3354 O.2     4  LEU4       -0.2738
      4 O         -13.4010   -6.8548   -2.8225 O.2     1  UNK1       -0.2737
      5 O         -13.5008   -9.1811    0.9590 O.2     5  TRP5       -0.2738
      6 O         -10.9577   -9.1267   -1.2943 O.2     6  ASP6       -0.2738
      7 O         -17.0307   -7.4057    3.8050 O.2     3  UNK3       -0.2734
      8 O         -16.5186   -8.9459   -0.2797 O.2     2  ASP2       -0.2737
      9 OD1       -10.7867  -13.0344    1.6617 O.co2   6  ASP6       -0.5497
     10 OD2       -11.3056  -14.4183   -0.0855 O.co2   6  ASP6       -0.5497
     11 OD1       -16.4886   -7.1354   -4.9481 O.co2   2  ASP2       -0.5497
     12 OD2       -18.7494   -7.2903   -4.7282 O.co2   2  ASP2       -0.5497
     13 N         -13.1653  -11.3942   -6.4410 N.am    1  UNK1       -0.2984
     14 N         -14.5477  -13.6805   -7.6171 N.pl3   1  UNK1       -0.3269
     15 N         -12.7501  -10.1760   -2.2835 N.am    1  UNK1       -0.3020
     16 N         -13.9694   -9.2025    3.5206 N.am    5  TRP5       -0.3022
     17 N         -16.3338   -8.9380    2.2940 N.am    4  LEU4       -0.3022
     18 N         -11.6661  -10.5349    1.1367 N.am    6  ASP6       -0.3021
     19 N         -15.0707   -8.4157   -2.5597 N.am    2  ASP2       -0.3021
     20 N         -16.4295   -6.7138    0.1918 N.am    3  UNK3       -0.2984
     21 NE1        -8.2936   -8.3703    2.2501 N.ar    5  TRP5       -0.3604
     22 C         -12.4180  -12.5380   -6.9645 C.3     1  UNK1        0.0304
     23 C         -14.5395  -11.2521   -6.9436 C.3     1  UNK1        0.0304
     24 C         -13.1720  -13.3307   -8.0482 C.3     1  UNK1        0.0280
     25 C         -15.2729  -12.6046   -6.8870 C.3     1  UNK1        0.0280
     26 C         -12.5925  -10.6866   -5.3902 C.2     1  UNK1        0.2179
     27 C         -13.5099   -9.7631   -4.6182 C.3     1  UNK1        0.0510
     28 C         -12.8759   -9.1777   -3.3511 C.3     1  UNK1        0.1076
     29 CA        -16.2579  -10.0723    3.2198 C.3     4  LEU4        0.0997
     30 CB        -16.7563  -11.3625    2.5293 C.3     4  LEU4       -0.0236
     31 CA        -12.5521   -9.4343    3.1800 C.3     5  TRP5        0.1034
     32 C         -14.9141  -15.0130   -7.4151 C.ar    1  UNK1        0.0298
     33 CG        -18.2874  -11.4863    2.3370 C.3     4  LEU4       -0.0446
     34 CB        -11.7463   -8.1700    3.5082 C.3     5  TRP5        0.0013
     35 C         -14.8040  -10.2835    3.7329 C.2     4  LEU4        0.2340
     36 CA        -11.8643  -11.1188   -0.1890 C.3     6  ASP6        0.1045
     37 C         -13.7792   -8.0239   -2.8609 C.2     1  UNK1        0.2344
     38 CG        -10.2668   -8.2539    3.2866 C.ar    5  TRP5       -0.0201
     39 C         -12.6214   -9.6987    1.6572 C.2     5  TRP5        0.2343
     40 C         -11.8006  -10.0232   -1.2831 C.2     6  ASP6        0.2343
     41 CA        -16.0924   -7.4673   -2.1479 C.3     2  ASP2        0.1045
     42 CD2       -18.8959  -10.4484    1.3950 C.3     4  LEU4       -0.0626
     43 CD1       -18.6200  -12.8819    1.7939 C.3     4  LEU4       -0.0626
     44 C         -17.2340   -6.7771    1.4150 C.3     3  UNK3        0.1311
     45 C         -14.2955  -16.0712   -8.1041 C.ar    1  UNK1       -0.0407
     46 C         -15.9466  -15.3864   -6.5346 C.ar    1  UNK1       -0.0407
     47 CD2        -9.2240   -8.2722    4.2726 C.ar    5  TRP5        0.0029
     48 C         -16.7952   -7.6858    2.6276 C.2     3  UNK3        0.2390
     49 CB        -10.8035  -12.1615   -0.5187 C.3     6  ASP6        0.0138
     50 CD1        -9.6401   -8.2574    2.0564 C.ar    5  TRP5        0.0060
     51 CE2        -8.0049   -8.3363    3.5932 C.ar    5  TRP5        0.0467
     52 C         -16.3410   -7.7876   -0.6631 C.2     2  ASP2        0.2345
     53 CB        -17.4316   -7.6924   -2.8422 C.3     2  ASP2        0.0138
     54 C         -14.6229  -17.4151   -7.8701 C.ar    1  UNK1       -0.0600
     55 C         -16.2816  -16.7258   -6.2911 C.ar    1  UNK1       -0.0600
     56 C         -17.4139   -5.3560    1.9189 C.ar    3  UNK3        0.0189
     57 CE3        -9.1967   -8.2316    5.6828 C.ar    5  TRP5       -0.0523
     58 C         -15.6086  -17.7436   -6.9504 C.ar    1  UNK1       -0.0616
     59 CZ2        -6.7672   -8.3656    4.2476 C.ar    5  TRP5       -0.0378
     60 CG        -10.9814  -13.3194    0.4448 C.2     6  ASP6        0.0440
     61 CZ3        -7.9666   -8.2490    6.3540 C.ar    5  TRP5       -0.0611
     62 C         -16.4904   -4.3272    1.9970 C.ar    3  UNK3       -0.0493
     63 CH2        -6.7705   -8.3159    5.6438 C.ar    5  TRP5       -0.0598
     64 CG        -17.5549   -7.3290   -4.3102 C.2     2  ASP2        0.0440
     65 C         -17.0452   -3.1357    2.5483 C.ar    3  UNK3       -0.0544
     66 C         -18.3682   -3.2931    2.8911 C.ar    3  UNK3       -0.0240
     67 H         -13.5193  -10.8032   -2.0944 H       1  UNK1        0.1495
     68 H         -14.4022   -8.5217    2.9030 H       5  TRP5        0.1495
     69 H         -16.1018   -9.1218    1.3129 H       4  LEU4        0.1495
     70 H         -11.2233  -11.1902    1.7927 H       6  ASP6        0.1495
     71 H         -15.2496   -9.3870   -2.3504 H       2  ASP2        0.1495
     72 H         -16.3973   -5.8135   -0.2701 H       3  UNK3        0.1498
     73 HE1        -7.6141   -8.4513    1.5074 H       5  TRP5        0.1653
     74 H         -12.2014  -13.2005   -6.1165 H       1  UNK1        0.0480
     75 H         -11.4594  -12.1788   -7.3554 H       1  UNK1        0.0480
     76 H         -14.4646  -10.9023   -7.9804 H       1  UNK1        0.0480
     77 H         -15.1027  -10.4959   -6.3943 H       1  UNK1        0.0480
     78 H         -13.2517  -12.7215   -8.9574 H       1  UNK1        0.0479
     79 H         -12.5552  -14.1932   -8.3122 H       1  UNK1        0.0479
     80 H         -15.3629  -12.8641   -5.8255 H       1  UNK1        0.0479
     81 H         -16.2767  -12.4915   -7.3118 H       1  UNK1        0.0479
     82 H         -14.4089  -10.3296   -4.3460 H       1  UNK1        0.0381
     83 H         -13.7992   -8.9495   -5.2945 H       1  UNK1        0.0381
     84 H         -11.8863   -8.7590   -3.5680 H       1  UNK1        0.0599
     85 HA        -16.8703   -9.8595    4.1035 H       4  LEU4        0.0594
     86 HB1       -16.4369  -12.2260    3.1275 H       4  LEU4        0.0290
     87 HB2       -16.2557  -11.4735    1.5572 H       4  LEU4        0.0290
     88 HA        -12.1778  -10.3199    3.7045 H       5  TRP5        0.0598
     89 HG        -18.7704  -11.3819    3.3162 H       4  LEU4        0.0296
     90 HB1       -11.9325   -7.9019    4.5568 H       5  TRP5        0.0337
     91 HB2       -12.1301   -7.3243    2.9207 H       5  TRP5        0.0337
     92 HA        -12.8636  -11.5734   -0.1888 H       6  ASP6        0.0598
     93 HA        -15.7426   -6.4381   -2.2739 H       2  ASP2        0.0598
     94 HD21      -18.4048  -10.4630    0.4176 H       4  LEU4        0.0232
     95 HD22      -18.8355   -9.4420    1.8110 H       4  LEU4        0.0232
     96 HD23      -19.9600  -10.6505    1.2274 H       4  LEU4        0.0232
     97 HD11      -18.1502  -13.0490    0.8179 H       4  LEU4        0.0232
     98 HD12      -19.7020  -13.0064    1.6711 H       4  LEU4        0.0232
     99 HD13      -18.2717  -13.6626    2.4775 H       4  LEU4        0.0232
    100 H         -18.2091   -7.1746    1.1007 H       3  UNK3        0.0651
    101 H         -13.5428  -15.8778   -8.8611 H       1  UNK1        0.0636
    102 H         -16.5138  -14.6417   -5.9849 H       1  UNK1        0.0636
    103 HB1        -9.7914  -11.7539   -0.4103 H       6  ASP6        0.0348
    104 HB2       -10.9074  -12.5081   -1.5541 H       6  ASP6        0.0348
    105 HD1       -10.0436   -8.2301    1.0504 H       5  TRP5        0.0810
    106 HB1       -18.2003   -7.1119   -2.3113 H       2  ASP2        0.0348
    107 HB2       -17.7300   -8.7464   -2.7532 H       2  ASP2        0.0348
    108 H         -14.0985  -18.1987   -8.4092 H       1  UNK1        0.0618
    109 H         -17.0629  -16.9606   -5.5732 H       1  UNK1        0.0618
    110 HE3       -10.1230   -8.1857    6.2473 H       5  TRP5        0.0624
    111 H         -15.8548  -18.7819   -6.7520 H       1  UNK1        0.0618
    112 HZ2        -5.8380   -8.4265    3.6917 H       5  TRP5        0.0638
    113 HZ3        -7.9497   -8.2164    7.4396 H       5  TRP5        0.0618
    114 H         -15.4589   -4.4263    1.6761 H       3  UNK3        0.0626
    115 HH2        -5.8253   -8.3367    6.1802 H       5  TRP5        0.0618
    116 H         -16.4955   -2.2149    2.6975 H       3  UNK3        0.0623
    117 H         -19.0273   -2.5670    3.3443 H       3  UNK3        0.0693
@<TRIPOS>BOND
     1     1    56   ar
     2     1    66   ar
     3     2    26    2
     4     3    35    2
     5     4    37    2
     6     5    39    2
     7     6    40    2
     8     7    48    2
     9     8    52    2
    10     9    60   ar
    11    10    60   ar
    12    11    64   ar
    13    12    64   ar
    14    13    22    1
    15    13    23    1
    16    14    24    1
    17    14    25    1
    18    14    32    1
    19    15    28    1
    20    15    40   am
    21    16    35   am
    22    16    31    1
    23    17    48   am
    24    17    29    1
    25    18    39   am
    26    18    36    1
    27    19    37   am
    28    19    41    1
    29    20    52   am
    30    20    44    1
    31    21    50   ar
    32    21    51   ar
    33    22    24    1
    34    23    25    1
    35    26    27    1
    36    26    13   am
    37    28    37    1
    38    28    27    1
    39    29    35    1
    40    29    30    1
    41    30    33    1
    42    31    39    1
    43    31    34    1
    44    32    45   ar
    45    32    46   ar
    46    33    43    1
    47    33    42    1
    48    34    38    1
    49    36    40    1
    50    36    49    1
    51    38    47   ar
    52    38    50   ar
    53    41    52    1
    54    41    53    1
    55    44    48    1
    56    44    56    1
    57    45    54   ar
    58    46    55   ar
    59    47    57   ar
    60    47    51   ar
    61    49    60    1
    62    51    59   ar
    63    53    64    1
    64    54    58   ar
    65    55    58   ar
    66    56    62   ar
    67    57    61   ar
    68    59    63   ar
    69    61    63   ar
    70    62    65   ar
    71    65    66   ar
    72    15    67    1
    73    16    68    1
    74    17    69    1
    75    18    70    1
    76    19    71    1
    77    20    72    1
    78    21    73    1
    79    22    74    1
    80    22    75    1
    81    23    76    1
    82    23    77    1
    83    24    78    1
    84    24    79    1
    85    25    80    1
    86    25    81    1
    87    27    82    1
    88    27    83    1
    89    28    84    1
    90    29    85    1
    91    30    86    1
    92    30    87    1
    93    31    88    1
    94    33    89    1
    95    34    90    1
    96    34    91    1
    97    36    92    1
    98    41    93    1
    99    42    94    1
   100    42    95    1
   101    42    96    1
   102    43    97    1
   103    43    98    1
   104    43    99    1
   105    44   100    1
   106    45   101    1
   107    46   102    1
   108    49   103    1
   109    49   104    1
   110    50   105    1
   111    53   106    1
   112    53   107    1
   113    54   108    1
   114    55   109    1
   115    57   110    1
   116    58   111    1
   117    59   112    1
   118    61   113    1
   119    62   114    1
   120    63   115    1
   121    65   116    1
   122    66   117    1
@<TRIPOS>MOLECULE
123882
 117 122 0 0 0
SMALL
GASTEIGER

@<TRIPOS>ATOM
      1 S         -16.8839   -5.0183    3.5707 S.2     3  UNK3       -0.0993
      2 O         -11.4014  -11.0002   -4.9801 O.2     1  UNK1       -0.2755
      3 O         -14.3692  -11.2118    4.5444 O.2     4  LEU4       -0.2738
      4 O         -13.9011   -7.0813   -3.6865 O.2     1  UNK1       -0.2737
      5 O         -13.7245   -9.5332    0.9889 O.2     5  TRP5       -0.2738
      6 O         -11.1508   -8.9491   -1.2724 O.2     6  ASP6       -0.2738
      7 O         -18.2774   -8.0840    3.6686 O.2     3  UNK3       -0.2734
      8 O         -16.6917   -9.0699   -0.0528 O.2     2  ASP2       -0.2737
      9 OD1       -10.4779  -12.8790    1.6068 O.co2   6  ASP6       -0.5497
     10 OD2       -10.9772  -14.2637   -0.1483 O.co2   6  ASP6       -0.5497
     11 OD1       -17.7053   -5.4932   -1.5159 O.co2   2  ASP2       -0.5497
     12 OD2       -19.2838   -6.6243   -2.7078 O.co2   2  ASP2       -0.5497
     13 N         -13.0893  -11.5926   -6.4088 N.am    1  UNK1       -0.2984
     14 N         -13.3893  -11.9460   -9.2733 N.pl3   1  UNK1       -0.3269
     15 N         -12.7777  -10.2133   -2.2722 N.am    1  UNK1       -0.3020
     16 N         -13.9455   -9.1596    3.6319 N.am    5  TRP5       -0.3022
     17 N         -16.3705   -8.8280    2.6654 N.am    4  LEU4       -0.3022
     18 N         -11.6356  -10.4660    1.1149 N.am    6  ASP6       -0.3021
     19 N         -14.8979   -8.4548   -2.1408 N.am    2  ASP2       -0.3021
     20 N         -16.6363   -6.8526    0.5255 N.am    3  UNK3       -0.2984
     21 NE1       -12.5588   -5.3286    1.4415 N.ar    5  TRP5       -0.3604
     22 C         -14.3533  -11.2469   -7.0736 C.3     1  UNK1        0.0304
     23 C         -12.2367  -12.5508   -7.1166 C.3     1  UNK1        0.0304
     24 C         -14.5736  -12.0129   -8.3903 C.3     1  UNK1        0.0280
     25 C         -12.0776  -12.1642   -8.5958 C.3     1  UNK1        0.0280
     26 C         -12.5738  -10.8851   -5.3291 C.2     1  UNK1        0.2179
     27 C         -13.5561   -9.9841   -4.6085 C.3     1  UNK1        0.0510
     28 C         -12.9507   -9.2887   -3.3897 C.3     1  UNK1        0.1076
     29 CA        -16.2474  -10.0319    3.5067 C.3     4  LEU4        0.0997
     30 CB        -16.7700  -11.2415    2.7016 C.3     4  LEU4       -0.0236
     31 CA        -12.5973   -9.4643    3.1557 C.3     5  TRP5        0.1034
     32 C         -13.3276  -11.0023  -10.3071 C.ar    1  UNK1        0.0298
     33 CG        -16.8461  -12.6016    3.4246 C.3     4  LEU4       -0.0446
     34 CB        -11.6095   -8.3140    3.3884 C.3     5  TRP5        0.0013
     35 C         -14.7755  -10.2219    3.9406 C.2     4  LEU4        0.2340
     36 CA        -11.7716  -11.0711   -0.2071 C.3     6  ASP6        0.1045
     37 C         -13.9056   -8.1301   -3.0413 C.2     1  UNK1        0.2344
     38 CG        -12.0524   -6.9794    2.8556 C.ar    5  TRP5       -0.0201
     39 C         -12.7252   -9.8185    1.6563 C.2     5  TRP5        0.2343
     40 C         -11.8538   -9.9585   -1.2752 C.2     6  ASP6        0.2343
     41 CA        -15.9121   -7.4805   -1.7358 C.3     2  ASP2        0.1045
     42 CD2       -17.6752  -12.5442    4.7055 C.3     4  LEU4       -0.0626
     43 CD1       -17.4264  -13.6588    2.4773 C.3     4  LEU4       -0.0626
     44 C         -17.6248   -6.9356    1.5981 C.3     3  UNK3        0.1311
     45 C         -12.3942  -11.1748  -11.3454 C.ar    1  UNK1       -0.0407
     46 C         -14.1468   -9.8672  -10.3729 C.ar    1  UNK1       -0.0407
     47 CD2       -12.5446   -5.8607    3.6059 C.ar    5  TRP5        0.0029
     48 C         -17.4616   -7.9882    2.7466 C.2     3  UNK3        0.2390
     49 CB        -10.5989  -11.9771   -0.5545 C.3     6  ASP6        0.0138
     50 CD1       -12.0537   -6.5960    1.5281 C.ar    5  TRP5        0.0060
     51 CE2       -12.8287   -4.8394    2.6973 C.ar    5  TRP5        0.0467
     52 C         -16.4545   -7.8997   -0.3506 C.2     2  ASP2        0.2345
     53 CB        -17.0699   -7.4293   -2.7277 C.3     2  ASP2        0.0138
     54 C         -12.2696  -10.2518  -12.3886 C.ar    1  UNK1       -0.0600
     55 C         -14.0235   -8.9348  -11.4109 C.ar    1  UNK1       -0.0600
     56 C         -17.7222   -5.5216    2.1599 C.ar    3  UNK3        0.0189
     57 CE3       -12.7799   -5.6205    4.9759 C.ar    5  TRP5       -0.0523
     58 C         -13.0838   -9.1261  -12.4179 C.ar    1  UNK1       -0.0616
     59 CZ2       -13.3163   -3.5864    3.0913 C.ar    5  TRP5       -0.0378
     60 CG        -10.6904  -13.1607    0.3891 C.2     6  ASP6        0.0440
     61 CZ3       -13.2666   -4.3735    5.3871 C.ar    5  TRP5       -0.0611
     62 C         -18.3798   -4.4504    1.5734 C.ar    3  UNK3       -0.0493
     63 CH2       -13.5244   -3.3702    4.4564 C.ar    5  TRP5       -0.0598
     64 CG        -18.1133   -6.4127   -2.2836 C.2     2  ASP2        0.0440
     65 C         -18.1878   -3.2275    2.2767 C.ar    3  UNK3       -0.0544
     66 C         -17.4015   -3.3989    3.3911 C.ar    3  UNK3       -0.0240
     67 H         -13.4116  -10.9937   -2.1557 H       1  UNK1        0.1495
     68 H         -14.4125   -8.4260    3.1023 H       5  TRP5        0.1495
     69 H         -15.9353   -8.8925    1.7422 H       4  LEU4        0.1495
     70 H         -11.1080  -11.0665    1.7585 H       6  ASP6        0.1495
     71 H         -14.6903   -9.1900   -1.4684 H       2  ASP2        0.1495
     72 H         -16.7620   -5.9872   -0.0173 H       3  UNK3        0.1498
     73 HE1       -12.7109   -4.8264    0.5785 H       5  TRP5        0.1653
     74 H         -14.3382  -10.1704   -7.2749 H       1  UNK1        0.0480
     75 H         -15.1753  -11.4483   -6.3788 H       1  UNK1        0.0480
     76 H         -12.7184  -13.5321   -7.0290 H       1  UNK1        0.0480
     77 H         -11.2522  -12.6363   -6.6465 H       1  UNK1        0.0480
     78 H         -14.7478  -13.0715   -8.1570 H       1  UNK1        0.0479
     79 H         -15.4890  -11.6778   -8.8911 H       1  UNK1        0.0479
     80 H         -11.4725  -11.2481   -8.6353 H       1  UNK1        0.0479
     81 H         -11.5292  -12.9572   -9.1167 H       1  UNK1        0.0479
     82 H         -14.4278  -10.5791   -4.3098 H       1  UNK1        0.0381
     83 H         -13.8915   -9.2244   -5.3244 H       1  UNK1        0.0381
     84 H         -11.9776   -8.8414   -3.6258 H       1  UNK1        0.0599
     85 HA        -16.8362   -9.8825    4.4167 H       4  LEU4        0.0594
     86 HB1       -16.1357  -11.3668    1.8120 H       4  LEU4        0.0290
     87 HB2       -17.7707  -10.9964    2.3196 H       4  LEU4        0.0290
     88 HA        -12.2312  -10.3592    3.6739 H       5  TRP5        0.0598
     89 HG        -15.8353  -12.9350    3.6827 H       4  LEU4        0.0296
     90 HB1       -10.6364   -8.5603    2.9447 H       5  TRP5        0.0337
     91 HB2       -11.4354   -8.2204    4.4681 H       5  TRP5        0.0337
     92 HA        -12.7104  -11.6412   -0.2073 H       6  ASP6        0.0598
     93 HA        -15.4110   -6.5078   -1.6571 H       2  ASP2        0.0598
     94 HD21      -18.6827  -12.1631    4.5090 H       4  LEU4        0.0232
     95 HD22      -17.2040  -11.9011    5.4544 H       4  LEU4        0.0232
     96 HD23      -17.7714  -13.5408    5.1497 H       4  LEU4        0.0232
     97 HD11      -18.4526  -13.4128    2.1849 H       4  LEU4        0.0232
     98 HD12      -17.4378  -14.6447    2.9548 H       4  LEU4        0.0232
     99 HD13      -16.8232  -13.7391    1.5665 H       4  LEU4        0.0232
    100 H         -18.5781   -7.1911    1.1150 H       3  UNK3        0.0651
    101 H         -11.7554  -12.0543  -11.3532 H       1  UNK1        0.0636
    102 H         -14.8775   -9.6552   -9.5992 H       1  UNK1        0.0636
    103 HB1        -9.6369  -11.4693   -0.4187 H       6  ASP6        0.0348
    104 HB2       -10.6534  -12.3122   -1.5971 H       6  ASP6        0.0348
    105 HD1       -11.7654   -7.1318    0.6317 H       5  TRP5        0.0810
    106 HB1       -17.5429   -8.4171   -2.8123 H       2  ASP2        0.0348
    107 HB2       -16.7202   -7.1504   -3.7281 H       2  ASP2        0.0348
    108 H         -11.5348  -10.4169  -13.1706 H       1  UNK1        0.0618
    109 H         -14.6588   -8.0528  -11.4185 H       1  UNK1        0.0618
    110 HE3       -12.5950   -6.4009    5.7076 H       5  TRP5        0.0624
    111 H         -12.9855   -8.3993  -13.2186 H       1  UNK1        0.0618
    112 HZ2       -13.5438   -2.8163    2.3619 H       5  TRP5        0.0638
    113 HZ3       -13.4567   -4.1956    6.4420 H       5  TRP5        0.0618
    114 H         -18.9284   -4.5411    0.6401 H       3  UNK3        0.0626
    115 HH2       -13.9145   -2.4128    4.7906 H       5  TRP5        0.0618
    116 H         -18.5915   -2.2744    1.9618 H       3  UNK3        0.0623
    117 H         -17.0854   -2.6492    4.1017 H       3  UNK3        0.0693
@<TRIPOS>BOND
     1     1    56   ar
     2     1    66   ar
     3     2    26    2
     4     3    35    2
     5     4    37    2
     6     5    39    2
     7     6    40    2
     8     7    48    2
     9     8    52    2
    10     9    60   ar
    11    10    60   ar
    12    11    64   ar
    13    12    64   ar
    14    13    22    1
    15    13    23    1
    16    14    24    1
    17    14    25    1
    18    14    32    1
    19    15    28    1
    20    15    40   am
    21    16    35   am
    22    16    31    1
    23    17    48   am
    24    17    29    1
    25    18    39   am
    26    18    36    1
    27    19    37   am
    28    19    41    1
    29    20    52   am
    30    20    44    1
    31    21    50   ar
    32    21    51   ar
    33    22    24    1
    34    23    25    1
    35    26    27    1
    36    26    13   am
    37    28    37    1
    38    28    27    1
    39    29    35    1
    40    29    30    1
    41    30    33    1
    42    31    39    1
    43    31    34    1
    44    32    45   ar
    45    32    46   ar
    46    33    43    1
    47    33    42    1
    48    34    38    1
    49    36    40    1
    50    36    49    1
    51    38    47   ar
    52    38    50   ar
    53    41    52    1
    54    41    53    1
    55    44    48    1
    56    44    56    1
    57    45    54   ar
    58    46    55   ar
    59    47    57   ar
    60    47    51   ar
    61    49    60    1
    62    51    59   ar
    63    53    64    1
    64    54    58   ar
    65    55    58   ar
    66    56    62   ar
    67    57    61   ar
    68    59    63   ar
    69    61    63   ar
    70    62    65   ar
    71    65    66   ar
    72    15    67    1
    73    16    68    1
    74    17    69    1
    75    18    70    1
    76    19    71    1
    77    20    72    1
    78    21    73    1
    79    22    74    1
    80    22    75    1
    81    23    76    1
    82    23    77    1
    83    24    78    1
    84    24    79    1
    85    25    80    1
    86    25    81    1
    87    27    82    1
    88    27    83    1
    89    28    84    1
    90    29    85    1
    91    30    86    1
    92    30    87    1
    93    31    88    1
    94    33    89    1
    95    34    90    1
    96    34    91    1
    97    36    92    1
    98    41    93    1
    99    42    94    1
   100    42    95    1
   101    42    96    1
   102    43    97    1
   103    43    98    1
   104    43    99    1
   105    44   100    1
   106    45   101    1
   107    46   102    1
   108    49   103    1
   109    49   104    1
   110    50   105    1
   111    53   106    1
   112    53   107    1
   113    54   108    1
   114    55   109    1
   115    57   110    1
   116    58   111    1
   117    59   112    1
   118    61   113    1
   119    62   114    1
   120    63   115    1
   121    65   116    1
   122    66   117    1
@<TRIPOS>MOLECULE
123882
 117 122 0 0 0
SMALL
GASTEIGER

@<TRIPOS>ATOM
      1 S         -16.1755   -4.8221    2.9832 S.2     3  UNK3       -0.0993
      2 O         -11.4152  -10.6811   -5.1079 O.2     1  UNK1       -0.2755
      3 O         -14.4606  -11.2839    4.4850 O.2     4  LEU4       -0.2738
      4 O         -13.6253   -6.7986   -2.9819 O.2     1  UNK1       -0.2737
      5 O         -13.6380   -9.3760    1.0200 O.2     5  TRP5       -0.2738
      6 O         -11.0224   -8.9511   -1.1929 O.2     6  ASP6       -0.2738
      7 O         -17.8974   -7.7797    3.7352 O.2     3  UNK3       -0.2734
      8 O         -17.1634   -9.0257   -0.2591 O.2     2  ASP2       -0.2737
      9 OD1       -10.5748  -12.8611    1.7008 O.co2   6  ASP6       -0.5497
     10 OD2       -11.0823  -14.2897   -0.0145 O.co2   6  ASP6       -0.5497
     11 OD1       -17.3669   -6.2456   -4.5041 O.co2   2  ASP2       -0.5497
     12 OD2       -16.5998   -8.3100   -5.1409 O.co2   2  ASP2       -0.5497
     13 N         -13.2025  -11.3043   -6.3816 N.am    1  UNK1       -0.2984
     14 N         -14.5562  -13.6394   -7.4913 N.pl3   1  UNK1       -0.3269
     15 N         -12.6934  -10.1198   -2.2504 N.am    1  UNK1       -0.3020
     16 N         -14.0176   -9.2275    3.5797 N.am    5  TRP5       -0.3022
     17 N         -16.3850   -8.9384    2.4817 N.am    4  LEU4       -0.3022
     18 N         -11.6229  -10.4560    1.1719 N.am    6  ASP6       -0.3021
     19 N         -14.9996   -8.4656   -2.2065 N.am    2  ASP2       -0.3021
     20 N         -16.4839   -6.9547    0.3776 N.am    3  UNK3       -0.2984
     21 NE1       -12.2626   -6.9695    6.9027 N.ar    5  TRP5       -0.3604
     22 C         -12.4393  -12.4226   -6.9323 C.3     1  UNK1        0.0304
     23 C         -14.6011  -11.2102   -6.8261 C.3     1  UNK1        0.0304
     24 C         -13.2090  -13.2552   -7.9749 C.3     1  UNK1        0.0280
     25 C         -15.2844  -12.5858   -6.7311 C.3     1  UNK1        0.0280
     26 C         -12.6171  -10.5750   -5.3533 C.2     1  UNK1        0.2179
     27 C         -13.5333   -9.6782   -4.5504 C.3     1  UNK1        0.0510
     28 C         -12.8841   -9.0999   -3.2890 C.3     1  UNK1        0.1076
     29 CA        -16.2982  -10.1101    3.3740 C.3     4  LEU4        0.0997
     30 CB        -16.8158  -11.3371    2.5981 C.3     4  LEU4       -0.0236
     31 CA        -12.6213   -9.4988    3.2245 C.3     5  TRP5        0.1034
     32 C         -14.9219  -14.9766   -7.3441 C.ar    1  UNK1        0.0298
     33 CG        -16.9096  -12.6756    3.3575 C.3     4  LEU4       -0.0446
     34 CB        -11.7092   -8.3002    3.5081 C.3     5  TRP5        0.0013
     35 C         -14.8434  -10.2985    3.8616 C.2     4  LEU4        0.2340
     36 CA        -11.7716  -11.0430   -0.1624 C.3     6  ASP6        0.1045
     37 C         -13.8286   -7.9921   -2.7673 C.2     1  UNK1        0.2344
     38 CG        -11.6943   -7.9072    4.9608 C.ar    5  TRP5       -0.0201
     39 C         -12.6864   -9.7690    1.7051 C.2     5  TRP5        0.2343
     40 C         -11.7775   -9.9220   -1.2294 C.2     6  ASP6        0.2343
     41 CA        -16.1656   -7.6246   -1.9860 C.3     2  ASP2        0.1045
     42 CD2       -17.7174  -12.5706    4.6490 C.3     4  LEU4       -0.0626
     43 CD1       -17.5237  -13.7426    2.4443 C.3     4  LEU4       -0.0626
     44 C         -17.4096   -6.8878    1.5035 C.3     3  UNK3        0.1311
     45 C         -15.9506  -15.3819   -6.4733 C.ar    1  UNK1       -0.0407
     46 C         -14.3080  -16.0086   -8.0756 C.ar    1  UNK1       -0.0407
     47 CD2       -10.8260   -8.4040    5.9863 C.ar    5  TRP5        0.0029
     48 C         -17.2409   -7.8825    2.6963 C.2     3  UNK3        0.2390
     49 CB        -10.6529  -12.0229   -0.4910 C.3     6  ASP6        0.0138
     50 CD1       -12.5525   -7.0089    5.5678 C.ar    5  TRP5        0.0060
     51 CE2       -11.2043   -7.7997    7.1869 C.ar    5  TRP5        0.0467
     52 C         -16.6653   -7.9411   -0.5666 C.2     2  ASP2        0.2345
     53 CB        -17.3096   -7.9777   -2.9282 C.3     2  ASP2        0.0138
     54 C         -16.2954  -16.7282   -6.2884 C.ar    1  UNK1       -0.0600
     55 C         -14.6435  -17.3594   -7.8988 C.ar    1  UNK1       -0.0600
     56 C         -17.4248   -5.4559    1.9904 C.ar    3  UNK3        0.0189
     57 CE3        -9.7614   -9.3278    6.0090 C.ar    5  TRP5       -0.0523
     58 C         -15.6318  -17.7209   -6.9942 C.ar    1  UNK1       -0.0616
     59 CZ2       -10.5723   -8.0705    8.4071 C.ar    5  TRP5       -0.0378
     60 CG        -10.7794  -13.1754    0.4892 C.2     6  ASP6        0.0440
     61 CZ3        -9.1147   -9.6064    7.2194 C.ar    5  TRP5       -0.0611
     62 C         -18.3584   -4.4822    1.6801 C.ar    3  UNK3       -0.0493
     63 CH2        -9.5161   -8.9859    8.4000 C.ar    5  TRP5       -0.0598
     64 CG        -17.0402   -7.4513   -4.3211 C.2     2  ASP2        0.0440
     65 C         -18.0647   -3.2286    2.2866 C.ar    3  UNK3       -0.0544
     66 C         -16.9109   -3.2787    3.0345 C.ar    3  UNK3       -0.0240
     67 H         -13.3699  -10.8628   -2.1448 H       1  UNK1        0.1495
     68 H         -14.4619   -8.5400    2.9786 H       5  TRP5        0.1495
     69 H         -15.9934   -9.0450    1.5433 H       4  LEU4        0.1495
     70 H         -11.1347  -11.0928    1.8147 H       6  ASP6        0.1495
     71 H         -15.1033   -9.4557   -2.0375 H       2  ASP2        0.1495
     72 H         -16.0807   -6.0858    0.0498 H       3  UNK3        0.1498
     73 HE1       -12.7641   -6.4242    7.5880 H       5  TRP5        0.1653
     74 H         -12.1583  -13.0693   -6.0911 H       1  UNK1        0.0480
     75 H         -11.5135  -12.0312   -7.3691 H       1  UNK1        0.0480
     76 H         -14.5811  -10.8672   -7.8677 H       1  UNK1        0.0480
     77 H         -15.1657  -10.4694   -6.2598 H       1  UNK1        0.0480
     78 H         -13.3369  -12.6668   -8.8921 H       1  UNK1        0.0479
     79 H         -12.5755  -14.1057   -8.2389 H       1  UNK1        0.0479
     80 H         -15.3188  -12.8534   -5.6679 H       1  UNK1        0.0479
     81 H         -16.3095  -12.5055   -7.1109 H       1  UNK1        0.0479
     82 H         -14.4190  -10.2577   -4.2628 H       1  UNK1        0.0381
     83 H         -13.8461   -8.8614   -5.2118 H       1  UNK1        0.0381
     84 H         -11.9151   -8.6388   -3.5121 H       1  UNK1        0.0599
     85 HA        -16.9124   -9.9229    4.2598 H       4  LEU4        0.0594
     86 HB1       -16.1743  -11.4905    1.7182 H       4  LEU4        0.0290
     87 HB2       -17.8110  -11.0932    2.2001 H       4  LEU4        0.0290
     88 HA        -12.2725  -10.4000    3.7412 H       5  TRP5        0.0598
     89 HG        -15.9013  -13.0219    3.6088 H       4  LEU4        0.0296
     90 HB1       -12.0314   -7.4344    2.9131 H       5  TRP5        0.0337
     91 HB2       -10.6862   -8.5234    3.1805 H       5  TRP5        0.0337
     92 HA        -12.7419  -11.5577   -0.1791 H       6  ASP6        0.0598
     93 HA        -15.8935   -6.5663   -2.0691 H       2  ASP2        0.0598
     94 HD21      -18.7197  -12.1729    4.4591 H       4  LEU4        0.0232
     95 HD22      -17.2216  -11.9204    5.3759 H       4  LEU4        0.0232
     96 HD23      -17.8267  -13.5544    5.1185 H       4  LEU4        0.0232
     97 HD11      -18.5506  -13.4846    2.1641 H       4  LEU4        0.0232
     98 HD12      -17.5437  -14.7173    2.9436 H       4  LEU4        0.0232
     99 HD13      -16.9380  -13.8526    1.5252 H       4  LEU4        0.0232
    100 H         -18.4052   -7.1205    1.0984 H       3  UNK3        0.0651
    101 H         -16.5063  -14.6557   -5.8875 H       1  UNK1        0.0636
    102 H         -13.5523  -15.7884   -8.8222 H       1  UNK1        0.0636
    103 HB1        -9.6646  -11.5608   -0.3841 H       6  ASP6        0.0348
    104 HB2       -10.7392  -12.3843   -1.5224 H       6  ASP6        0.0348
    105 HD1       -13.3707   -6.4287    5.1619 H       5  TRP5        0.0810
    106 HB1       -18.2451   -7.5249   -2.5714 H       2  ASP2        0.0348
    107 HB2       -17.4847   -9.0601   -2.9640 H       2  ASP2        0.0348
    108 H         -17.0770  -16.9884   -5.5799 H       1  UNK1        0.0618
    109 H         -14.1239  -18.1224   -8.4710 H       1  UNK1        0.0618
    110 HE3        -9.4500   -9.8304    5.0970 H       5  TRP5        0.0624
    111 H         -15.8860  -18.7651   -6.8422 H       1  UNK1        0.0618
    112 HZ2       -10.8937   -7.5975    9.3283 H       5  TRP5        0.0638
    113 HZ3        -8.2990  -10.3247    7.2318 H       5  TRP5        0.0618
    114 H         -19.2135   -4.6653    1.0389 H       3  UNK3        0.0626
    115 HH2        -9.0078   -9.2246    9.3304 H       5  TRP5        0.0618
    116 H         -18.6677   -2.3365    2.1740 H       3  UNK3        0.0623
    117 H         -16.4537   -2.4797    3.6007 H       3  UNK3        0.0693
@<TRIPOS>BOND
     1     1    56   ar
     2     1    66   ar
     3     2    26    2
     4     3    35    2
     5     4    37    2
     6     5    39    2
     7     6    40    2
     8     7    48    2
     9     8    52    2
    10     9    60   ar
    11    10    60   ar
    12    11    64   ar
    13    12    64   ar
    14    13    22    1
    15    13    23    1
    16    14    24    1
    17    14    25    1
    18    14    32    1
    19    15    28    1
    20    15    40   am
    21    16    35   am
    22    16    31    1
    23    17    48   am
    24    17    29    1
    25    18    39   am
    26    18    36    1
    27    19    37   am
    28    19    41    1
    29    20    52   am
    30    20    44    1
    31    21    50   ar
    32    21    51   ar
    33    22    24    1
    34    23    25    1
    35    26    27    1
    36    26    13   am
    37    28    37    1
    38    28    27    1
    39    29    35    1
    40    29    30    1
    41    30    33    1
    42    31    39    1
    43    31    34    1
    44    32    45   ar
    45    32    46   ar
    46    33    43    1
    47    33    42    1
    48    34    38    1
    49    36    40    1
    50    36    49    1
    51    38    47   ar
    52    38    50   ar
    53    41    52    1
    54    41    53    1
    55    44    48    1
    56    44    56    1
    57    45    54   ar
    58    46    55   ar
    59    47    57   ar
    60    47    51   ar
    61    49    60    1
    62    51    59   ar
    63    53    64    1
    64    54    58   ar
    65    55    58   ar
    66    56    62   ar
    67    57    61   ar
    68    59    63   ar
    69    61    63   ar
    70    62    65   ar
    71    65    66   ar
    72    15    67    1
    73    16    68    1
    74    17    69    1
    75    18    70    1
    76    19    71    1
    77    20    72    1
    78    21    73    1
    79    22    74    1
    80    22    75    1
    81    23    76    1
    82    23    77    1
    83    24    78    1
    84    24    79    1
    85    25    80    1
    86    25    81    1
    87    27    82    1
    88    27    83    1
    89    28    84    1
    90    29    85    1
    91    30    86    1
    92    30    87    1
    93    31    88    1
    94    33    89    1
    95    34    90    1
    96    34    91    1
    97    36    92    1
    98    41    93    1
    99    42    94    1
   100    42    95    1
   101    42    96    1
   102    43    97    1
   103    43    98    1
   104    43    99    1
   105    44   100    1
   106    45   101    1
   107    46   102    1
   108    49   103    1
   109    49   104    1
   110    50   105    1
   111    53   106    1
   112    53   107    1
   113    54   108    1
   114    55   109    1
   115    57   110    1
   116    58   111    1
   117    59   112    1
   118    61   113    1
   119    62   114    1
   120    63   115    1
   121    65   116    1
   122    66   117    1
@<TRIPOS>MOLECULE
123882
 117 122 0 0 0
SMALL
GASTEIGER

@<TRIPOS>ATOM
      1 S         -19.0269   -4.7800    2.3817 S.2     3  UNK3       -0.0993
      2 O         -11.4154  -10.6365   -5.1425 O.2     1  UNK1       -0.2755
      3 O         -14.2955  -11.1398    4.5182 O.2     4  LEU4       -0.2738
      4 O         -13.6403   -6.8165   -2.8622 O.2     1  UNK1       -0.2737
      5 O         -13.5391   -9.2769    0.9114 O.2     5  TRP5       -0.2738
      6 O         -10.9334   -9.1233   -1.3264 O.2     6  ASP6       -0.2738
      7 O         -17.3019   -7.5328    3.8979 O.2     3  UNK3       -0.2734
      8 O         -16.9626   -9.0663   -0.1847 O.2     2  ASP2       -0.2737
      9 OD1       -10.7551  -13.0605    1.6152 O.co2   6  ASP6       -0.5497
     10 OD2       -11.3355  -14.4006   -0.1453 O.co2   6  ASP6       -0.5497
     11 OD1       -16.6442   -8.3125   -5.0454 O.co2   2  ASP2       -0.5497
     12 OD2       -17.9810   -6.5120   -4.5899 O.co2   2  ASP2       -0.5497
     13 N         -13.1910  -11.2975   -6.4144 N.am    1  UNK1       -0.2984
     14 N         -14.5348  -13.6517   -7.5045 N.pl3   1  UNK1       -0.3269
     15 N         -12.7488  -10.1513   -2.2927 N.am    1  UNK1       -0.3020
     16 N         -13.9176   -9.1389    3.4705 N.am    5  TRP5       -0.3022
     17 N         -16.3412   -8.9602    2.4195 N.am    4  LEU4       -0.3022
     18 N         -11.6353  -10.5327    1.0881 N.am    6  ASP6       -0.3021
     19 N         -15.1021   -8.5015   -2.3244 N.am    2  ASP2       -0.3021
     20 N         -16.5657   -6.8801    0.3041 N.am    3  UNK3       -0.2984
     21 NE1        -8.2165   -8.3622    2.2167 N.ar    5  TRP5       -0.3604
     22 C         -12.4208  -12.4275   -6.9395 C.3     1  UNK1        0.0304
     23 C         -14.5850  -11.2168   -6.8724 C.3     1  UNK1        0.0304
     24 C         -13.1802  -13.2780   -7.9763 C.3     1  UNK1        0.0280
     25 C         -15.2662  -12.5919   -6.7587 C.3     1  UNK1        0.0280
     26 C         -12.6189  -10.5539   -5.3875 C.2     1  UNK1        0.2179
     27 C         -13.5532   -9.6710   -4.5937 C.3     1  UNK1        0.0510
     28 C         -12.9314   -9.1090   -3.3114 C.3     1  UNK1        0.1076
     29 CA        -16.1809  -10.0899    3.3550 C.3     4  LEU4        0.0997
     30 CB        -16.6591  -11.3616    2.6265 C.3     4  LEU4       -0.0236
     31 CA        -12.5088   -9.3737    3.1057 C.3     5  TRP5        0.1034
     32 C         -14.9069  -14.9867   -7.3539 C.ar    1  UNK1        0.0298
     33 CG        -16.7648  -12.6617    3.4449 C.3     4  LEU4       -0.0446
     34 CB        -11.7097   -8.0873    3.3369 C.3     5  TRP5        0.0013
     35 C         -14.7121  -10.2084    3.8345 C.2     4  LEU4        0.2340
     36 CA        -11.8216  -11.1298   -0.2327 C.3     6  ASP6        0.1045
     37 C         -13.8876   -8.0183   -2.7723 C.2     1  UNK1        0.2344
     38 CG        -10.2264   -8.2075    3.1722 C.ar    5  TRP5       -0.0201
     39 C         -12.6164   -9.7201    1.6024 C.2     5  TRP5        0.2343
     40 C         -11.7729  -10.0226   -1.3163 C.2     6  ASP6        0.2343
     41 CA        -16.2421   -7.6474   -2.0314 C.3     2  ASP2        0.1045
     42 CD2       -17.6099  -12.5036    4.7074 C.3     4  LEU4       -0.0626
     43 CD1       -17.3557  -13.7700    2.5638 C.3     4  LEU4       -0.0626
     44 C         -17.3822   -6.8731    1.5194 C.3     3  UNK3        0.1311
     45 C         -15.9347  -15.3856   -6.4791 C.ar    1  UNK1       -0.0407
     46 C         -14.2995  -16.0222   -8.0856 C.ar    1  UNK1       -0.0407
     47 CD2        -9.2272   -8.2611    4.1999 C.ar    5  TRP5        0.0029
     48 C         -16.9605   -7.7732    2.7377 C.2     3  UNK3        0.2390
     49 CB        -10.7454  -12.1585   -0.5513 C.3     6  ASP6        0.0138
     50 CD1        -9.5528   -8.2320    1.9677 C.ar    5  TRP5        0.0060
     51 CE2        -7.9825   -8.3407    3.5710 C.ar    5  TRP5        0.0467
     52 C         -16.6268   -7.9385   -0.5701 C.2     2  ASP2        0.2345
     53 CB        -17.4673   -8.0138   -2.8648 C.3     2  ASP2        0.0138
     54 C         -16.2856  -16.7297   -6.2918 C.ar    1  UNK1       -0.0600
     55 C         -14.6415  -17.3707   -7.9068 C.ar    1  UNK1       -0.0600
     56 C         -17.4867   -5.4371    1.9910 C.ar    3  UNK3        0.0189
     57 CE3        -9.2609   -8.2419    5.6102 C.ar    5  TRP5       -0.0523
     58 C         -15.6289  -17.7262   -6.9984 C.ar    1  UNK1       -0.0616
     59 CZ2        -6.7747   -8.3960    4.2773 C.ar    5  TRP5       -0.0378
     60 CG        -10.9647  -13.3240    0.3943 C.2     6  ASP6        0.0440
     61 CZ3        -8.0612   -8.2916    6.3327 C.ar    5  TRP5       -0.0611
     62 C         -16.4843   -4.4987    2.1720 C.ar    3  UNK3       -0.0493
     63 CH2        -6.8372   -8.3660    5.6728 C.ar    5  TRP5       -0.0598
     64 CG        -17.3294   -7.5542   -4.3009 C.2     2  ASP2        0.0440
     65 C         -16.9857   -3.2470    2.6321 C.ar    3  UNK3       -0.0544
     66 C         -18.3515   -3.2694    2.8009 C.ar    3  UNK3       -0.0240
     67 H         -13.5037  -10.7954   -2.1059 H       1  UNK1        0.1495
     68 H         -14.3933   -8.5358    2.8038 H       5  TRP5        0.1495
     69 H         -16.1620   -9.1519    1.4302 H       4  LEU4        0.1495
     70 H         -11.1750  -11.1664    1.7513 H       6  ASP6        0.1495
     71 H         -15.2478   -9.4964   -2.2477 H       2  ASP2        0.1495
     72 H         -16.3905   -5.9790   -0.1313 H       3  UNK3        0.1498
     73 HE1        -7.5077   -8.4528    1.5030 H       5  TRP5        0.1653
     74 H         -12.1507  -13.0599   -6.0846 H       1  UNK1        0.0480
     75 H         -11.4888  -12.0434   -7.3736 H       1  UNK1        0.0480
     76 H         -14.5584  -10.8927   -7.9200 H       1  UNK1        0.0480
     77 H         -15.1561  -10.4658   -6.3255 H       1  UNK1        0.0480
     78 H         -13.2949  -12.7061   -8.9061 H       1  UNK1        0.0479
     79 H         -12.5454  -14.1354   -8.2155 H       1  UNK1        0.0479
     80 H         -15.3024  -12.8459   -5.6921 H       1  UNK1        0.0479
     81 H         -16.2916  -12.5182   -7.1415 H       1  UNK1        0.0479
     82 H         -14.4419  -10.2563   -4.3311 H       1  UNK1        0.0381
     83 H         -13.8545   -8.8448   -5.2506 H       1  UNK1        0.0381
     84 H         -11.9632   -8.6362   -3.5164 H       1  UNK1        0.0599
     85 HA        -16.7951   -9.8924    4.2388 H       4  LEU4        0.0594
     86 HB1       -15.9925  -11.5481    1.7719 H       4  LEU4        0.0290
     87 HB2       -17.6465  -11.1509    2.1906 H       4  LEU4        0.0290
     88 HA        -12.1099  -10.2262    3.6647 H       5  TRP5        0.0598
     89 HG        -15.7610  -12.9873    3.7392 H       4  LEU4        0.0296
     90 HB1       -11.9200   -7.7205    4.3502 H       5  TRP5        0.0337
     91 HB2       -12.0696   -7.2983    2.6622 H       5  TRP5        0.0337
     92 HA        -12.8151  -11.5974   -0.2362 H       6  ASP6        0.0598
     93 HA        -15.9760   -6.5945   -2.1600 H       2  ASP2        0.0598
     94 HD21      -18.6057  -12.1135    4.4724 H       4  LEU4        0.0232
     95 HD22      -17.1339  -11.8244    5.4205 H       4  LEU4        0.0232
     96 HD23      -17.7350  -13.4670    5.2131 H       4  LEU4        0.0232
     97 HD11      -18.3779  -13.5279    2.2524 H       4  LEU4        0.0232
     98 HD12      -17.3837  -14.7229    3.1018 H       4  LEU4        0.0232
     99 HD13      -16.7523  -13.9143    1.6612 H       4  LEU4        0.0232
    100 H         -18.3728   -7.2422    1.2220 H       3  UNK3        0.0651
    101 H         -16.4839  -14.6558   -5.8912 H       1  UNK1        0.0636
    102 H         -13.5449  -15.8049   -8.8343 H       1  UNK1        0.0636
    103 HB1        -9.7381  -11.7514   -0.4036 H       6  ASP6        0.0348
    104 HB2       -10.8169  -12.4933   -1.5932 H       6  ASP6        0.0348
    105 HD1        -9.9177   -8.2038    0.9463 H       5  TRP5        0.0810
    106 HB1       -18.3625   -7.5456   -2.4332 H       2  ASP2        0.0348
    107 HB2       -17.6513   -9.0952   -2.8542 H       2  ASP2        0.0348
    108 H         -17.0657  -16.9853   -5.5802 H       1  UNK1        0.0618
    109 H         -14.1271  -18.1374   -8.4793 H       1  UNK1        0.0618
    110 HE3       -10.2099   -8.1914    6.1343 H       5  TRP5        0.0624
    111 H         -15.8879  -18.7696   -6.8442 H       1  UNK1        0.0618
    112 HZ2        -5.8231   -8.4649    3.7609 H       5  TRP5        0.0638
    113 HZ3        -8.0914   -8.2792    7.4182 H       5  TRP5        0.0618
    114 H         -15.4368   -4.7034    1.9820 H       3  UNK3        0.0626
    115 HH2        -5.9167   -8.4100    6.2492 H       5  TRP5        0.0618
    116 H         -16.3728   -2.3780    2.8356 H       3  UNK3        0.0623
    117 H         -18.9902   -2.4684    3.1478 H       3  UNK3        0.0693
@<TRIPOS>BOND
     1     1    56   ar
     2     1    66   ar
     3     2    26    2
     4     3    35    2
     5     4    37    2
     6     5    39    2
     7     6    40    2
     8     7    48    2
     9     8    52    2
    10     9    60   ar
    11    10    60   ar
    12    11    64   ar
    13    12    64   ar
    14    13    22    1
    15    13    23    1
    16    14    24    1
    17    14    25    1
    18    14    32    1
    19    15    28    1
    20    15    40   am
    21    16    35   am
    22    16    31    1
    23    17    48   am
    24    17    29    1
    25    18    39   am
    26    18    36    1
    27    19    37   am
    28    19    41    1
    29    20    52   am
    30    20    44    1
    31    21    50   ar
    32    21    51   ar
    33    22    24    1
    34    23    25    1
    35    26    27    1
    36    26    13   am
    37    28    37    1
    38    28    27    1
    39    29    35    1
    40    29    30    1
    41    30    33    1
    42    31    39    1
    43    31    34    1
    44    32    45   ar
    45    32    46   ar
    46    33    43    1
    47    33    42    1
    48    34    38    1
    49    36    40    1
    50    36    49    1
    51    38    47   ar
    52    38    50   ar
    53    41    52    1
    54    41    53    1
    55    44    48    1
    56    44    56    1
    57    45    54   ar
    58    46    55   ar
    59    47    57   ar
    60    47    51   ar
    61    49    60    1
    62    51    59   ar
    63    53    64    1
    64    54    58   ar
    65    55    58   ar
    66    56    62   ar
    67    57    61   ar
    68    59    63   ar
    69    61    63   ar
    70    62    65   ar
    71    65    66   ar
    72    15    67    1
    73    16    68    1
    74    17    69    1
    75    18    70    1
    76    19    71    1
    77    20    72    1
    78    21    73    1
    79    22    74    1
    80    22    75    1
    81    23    76    1
    82    23    77    1
    83    24    78    1
    84    24    79    1
    85    25    80    1
    86    25    81    1
    87    27    82    1
    88    27    83    1
    89    28    84    1
    90    29    85    1
    91    30    86    1
    92    30    87    1
    93    31    88    1
    94    33    89    1
    95    34    90    1
    96    34    91    1
    97    36    92    1
    98    41    93    1
    99    42    94    1
   100    42    95    1
   101    42    96    1
   102    43    97    1
   103    43    98    1
   104    43    99    1
   105    44   100    1
   106    45   101    1
   107    46   102    1
   108    49   103    1
   109    49   104    1
   110    50   105    1
   111    53   106    1
   112    53   107    1
   113    54   108    1
   114    55   109    1
   115    57   110    1
   116    58   111    1
   117    59   112    1
   118    61   113    1
   119    62   114    1
   120    63   115    1
   121    65   116    1
   122    66   117    1
@<TRIPOS>MOLECULE
123882
 117 122 0 0 0
SMALL
GASTEIGER

@<TRIPOS>ATOM
      1 S         -18.9613   -4.9242    2.6461 S.2     3  UNK3       -0.0993
      2 O         -11.4428  -10.7759   -5.1023 O.2     1  UNK1       -0.2755
      3 O         -14.2838  -11.2881    4.3821 O.2     4  LEU4       -0.2738
      4 O         -13.5319   -6.8653   -2.7243 O.2     1  UNK1       -0.2737
      5 O         -13.4707   -9.1464    0.9546 O.2     5  TRP5       -0.2738
      6 O         -10.9432   -9.1462   -1.3594 O.2     6  ASP6       -0.2738
      7 O         -17.0159   -7.4851    3.9137 O.2     3  UNK3       -0.2734
      8 O         -16.8185   -9.0315   -0.2120 O.2     2  ASP2       -0.2737
      9 OD1       -10.7887  -12.9954    1.6598 O.co2   6  ASP6       -0.5497
     10 OD2       -11.2525  -14.4272   -0.0624 O.co2   6  ASP6       -0.5497
     11 OD1       -16.8020   -8.4348   -4.9632 O.co2   2  ASP2       -0.5497
     12 OD2       -17.8709   -6.4305   -4.6869 O.co2   2  ASP2       -0.5497
     13 N         -13.1947  -11.3617   -6.4415 N.am    1  UNK1       -0.2984
     14 N         -14.5689  -13.6577   -7.6150 N.pl3   1  UNK1       -0.3269
     15 N         -12.7923  -10.1660   -2.2804 N.am    1  UNK1       -0.3020
     16 N         -13.9042   -9.2025    3.5211 N.am    5  TRP5       -0.3022
     17 N         -16.3131   -9.0005    2.3843 N.am    4  LEU4       -0.3022
     18 N         -11.6350  -10.5050    1.1098 N.am    6  ASP6       -0.3021
     19 N         -15.1506   -8.4705   -2.4641 N.am    2  ASP2       -0.3021
     20 N         -16.5002   -6.8331    0.2907 N.am    3  UNK3       -0.2984
     21 NE1        -8.2427   -8.3485    2.2523 N.ar    5  TRP5       -0.3604
     22 C         -12.4442  -12.5085   -6.9540 C.3     1  UNK1        0.0304
     23 C         -14.5679  -11.2243   -6.9505 C.3     1  UNK1        0.0304
     24 C         -13.1916  -13.3045   -8.0404 C.3     1  UNK1        0.0280
     25 C         -15.2990  -12.5773   -6.8913 C.3     1  UNK1        0.0280
     26 C         -12.6338  -10.6493   -5.3867 C.2     1  UNK1        0.2179
     27 C         -13.5671   -9.7435   -4.6097 C.3     1  UNK1        0.0510
     28 C         -12.9500   -9.1581   -3.3350 C.3     1  UNK1        0.1076
     29 CA        -16.1684  -10.1425    3.3097 C.3     4  LEU4        0.0997
     30 CB        -16.7060  -11.3896    2.5775 C.3     4  LEU4       -0.0236
     31 CA        -12.4895   -9.3994    3.1608 C.3     5  TRP5        0.1034
     32 C         -14.9173  -14.9915   -7.3855 C.ar    1  UNK1        0.0298
     33 CG        -16.7896  -12.7161    3.3556 C.3     4  LEU4       -0.0446
     34 CB        -11.7036   -8.1211    3.4779 C.3     5  TRP5        0.0013
     35 C         -14.6970  -10.3068    3.7720 C.2     4  LEU4        0.2340
     36 CA        -11.8611  -11.1042   -0.2043 C.3     6  ASP6        0.1045
     37 C         -13.8799   -8.0437   -2.7979 C.2     1  UNK1        0.2344
     38 CG        -10.2228   -8.2057    3.2702 C.ar    5  TRP5       -0.0201
     39 C         -12.5799   -9.6630    1.6393 C.2     5  TRP5        0.2343
     40 C         -11.8064  -10.0223   -1.3128 C.2     6  ASP6        0.2343
     41 CA        -16.2113   -7.5640   -2.0597 C.3     2  ASP2        0.1045
     42 CD2       -17.5811  -12.5966    4.6555 C.3     4  LEU4       -0.0626
     43 CD1       -17.4234  -13.7906    2.4621 C.3     4  LEU4       -0.0626
     44 C         -17.2807   -6.8637    1.5300 C.3     3  UNK3        0.1311
     45 C         -15.9328  -15.3629   -6.4851 C.ar    1  UNK1       -0.0407
     46 C         -14.2955  -16.0536   -8.0661 C.ar    1  UNK1       -0.0407
     47 CD2        -9.1899   -8.2290    4.2661 C.ar    5  TRP5        0.0029
     48 C         -16.8030   -7.7629    2.7319 C.2     3  UNK3        0.2390
     49 CB        -10.8164  -12.1626   -0.5372 C.3     6  ASP6        0.0138
     50 CD1        -9.5862   -8.2251    2.0453 C.ar    5  TRP5        0.0060
     51 CE2        -7.9656   -8.3123    3.5981 C.ar    5  TRP5        0.0467
     52 C         -16.5223   -7.8943   -0.5866 C.2     2  ASP2        0.2345
     53 CB        -17.5124   -7.8011   -2.8174 C.3     2  ASP2        0.0138
     54 C         -16.2448  -16.7021   -6.2119 C.ar    1  UNK1       -0.0600
     55 C         -14.6007  -17.3975   -7.8032 C.ar    1  UNK1       -0.0600
     56 C         -17.4436   -5.4344    2.0138 C.ar    3  UNK3        0.0189
     57 CE3        -9.1754   -8.1842    5.6766 C.ar    5  TRP5       -0.0523
     58 C         -15.5671  -17.7226   -6.8621 C.ar    1  UNK1       -0.0616
     59 CZ2        -6.7348   -8.3583    4.2646 C.ar    5  TRP5       -0.0378
     60 CG        -10.9700  -13.3088    0.4456 C.2     6  ASP6        0.0440
     61 CZ3        -7.9519   -8.2181    6.3592 C.ar    5  TRP5       -0.0611
     62 C         -16.5257   -4.3972    2.0330 C.ar    3  UNK3       -0.0493
     63 CH2        -6.7503   -8.3053    5.6606 C.ar    5  TRP5       -0.0598
     64 CG        -17.3591   -7.5186   -4.2970 C.2     2  ASP2        0.0440
     65 C         -17.0710   -3.1932    2.5664 C.ar    3  UNK3       -0.0544
     66 C         -18.3799   -3.3498    2.9597 C.ar    3  UNK3       -0.0240
     67 H         -13.6065  -10.6979   -2.0047 H       1  UNK1        0.1495
     68 H         -14.3709   -8.5459    2.9008 H       5  TRP5        0.1495
     69 H         -16.1559   -9.1882    1.3900 H       4  LEU4        0.1495
     70 H         -11.1926  -11.1616    1.7654 H       6  ASP6        0.1495
     71 H         -15.4302   -9.4223   -2.6529 H       2  ASP2        0.1495
     72 H         -16.3671   -5.9281   -0.1426 H       3  UNK3        0.1498
     73 HE1        -7.5568   -8.4443    1.5172 H       5  TRP5        0.1653
     74 H         -12.2353  -13.1682   -6.1018 H       1  UNK1        0.0480
     75 H         -11.4817  -12.1529   -7.3387 H       1  UNK1        0.0480
     76 H         -14.4880  -10.8797   -7.9887 H       1  UNK1        0.0480
     77 H         -15.1342  -10.4657   -6.4085 H       1  UNK1        0.0480
     78 H         -13.2691  -12.6961   -8.9503 H       1  UNK1        0.0479
     79 H         -12.5724  -14.1658   -8.3034 H       1  UNK1        0.0479
     80 H         -15.3922  -12.8301   -5.8287 H       1  UNK1        0.0479
     81 H         -16.3014  -12.4694   -7.3209 H       1  UNK1        0.0479
     82 H         -14.4567  -10.3288   -4.3495 H       1  UNK1        0.0381
     83 H         -13.8641   -8.9272   -5.2791 H       1  UNK1        0.0381
     84 H         -11.9752   -8.7061   -3.5520 H       1  UNK1        0.0599
     85 HA        -16.7645   -9.9319    4.2034 H       4  LEU4        0.0594
     86 HB1       -16.0910  -11.5600    1.6821 H       4  LEU4        0.0290
     87 HB2       -17.7121  -11.1504    2.2025 H       4  LEU4        0.0290
     88 HA        -12.0868  -10.2772    3.6775 H       5  TRP5        0.0598
     89 HG        -15.7779  -13.0596    3.5959 H       4  LEU4        0.0296
     90 HB1       -11.8992   -7.8404    4.5215 H       5  TRP5        0.0337
     91 HB2       -12.0887   -7.2869    2.8753 H       5  TRP5        0.0337
     92 HA        -12.8635  -11.5513   -0.1809 H       6  ASP6        0.0598
     93 HA        -15.8820   -6.5253   -2.1632 H       2  ASP2        0.0598
     94 HD21      -18.5968  -12.2318    4.4707 H       4  LEU4        0.0232
     95 HD22      -17.0929  -11.9149    5.3579 H       4  LEU4        0.0232
     96 HD23      -17.6582  -13.5712    5.1504 H       4  LEU4        0.0232
     97 HD11      -18.4568  -13.5349    2.2029 H       4  LEU4        0.0232
     98 HD12      -17.4330  -14.7623    2.9674 H       4  LEU4        0.0232
     99 HD13      -16.8596  -13.9060    1.5301 H       4  LEU4        0.0232
    100 H         -18.2650   -7.2656    1.2508 H       3  UNK3        0.0651
    101 H         -16.5030  -14.6161   -5.9409 H       1  UNK1        0.0636
    102 H         -13.5578  -15.8625   -8.8384 H       1  UNK1        0.0636
    103 HB1        -9.7996  -11.7591   -0.4592 H       6  ASP6        0.0348
    104 HB2       -10.9460  -12.5241   -1.5643 H       6  ASP6        0.0348
    105 HD1        -9.9818   -8.2071    1.0356 H       5  TRP5        0.0810
    106 HB1       -18.3039   -7.1619   -2.4034 H       2  ASP2        0.0348
    107 HB2       -17.8622   -8.8349   -2.6981 H       2  ASP2        0.0348
    108 H         -17.0113  -16.9340   -5.4773 H       1  UNK1        0.0618
    109 H         -14.0740  -18.1837   -8.3361 H       1  UNK1        0.0618
    110 HE3       -10.1061   -8.1251    6.2323 H       5  TRP5        0.0624
    111 H         -15.7950  -18.7602   -6.6397 H       1  UNK1        0.0618
    112 HZ2        -5.8016   -8.4366    3.7176 H       5  TRP5        0.0638
    113 HZ3        -7.9449   -8.1840    7.4451 H       5  TRP5        0.0618
    114 H         -15.5055   -4.4958    1.6779 H       3  UNK3        0.0626
    115 HH2        -5.8110   -8.3408    6.2060 H       5  TRP5        0.0618
    116 H         -16.5249   -2.2637    2.6664 H       3  UNK3        0.0623
    117 H         -19.0294   -2.6140    3.4120 H       3  UNK3        0.0693
@<TRIPOS>BOND
     1     1    56   ar
     2     1    66   ar
     3     2    26    2
     4     3    35    2
     5     4    37    2
     6     5    39    2
     7     6    40    2
     8     7    48    2
     9     8    52    2
    10     9    60   ar
    11    10    60   ar
    12    11    64   ar
    13    12    64   ar
    14    13    22    1
    15    13    23    1
    16    14    24    1
    17    14    25    1
    18    14    32    1
    19    15    28    1
    20    15    40   am
    21    16    35   am
    22    16    31    1
    23    17    48   am
    24    17    29    1
    25    18    39   am
    26    18    36    1
    27    19    37   am
    28    19    41    1
    29    20    52   am
    30    20    44    1
    31    21    50   ar
    32    21    51   ar
    33    22    24    1
    34    23    25    1
    35    26    27    1
    36    26    13   am
    37    28    37    1
    38    28    27    1
    39    29    35    1
    40    29    30    1
    41    30    33    1
    42    31    39    1
    43    31    34    1
    44    32    45   ar
    45    32    46   ar
    46    33    43    1
    47    33    42    1
    48    34    38    1
    49    36    40    1
    50    36    49    1
    51    38    47   ar
    52    38    50   ar
    53    41    52    1
    54    41    53    1
    55    44    48    1
    56    44    56    1
    57    45    54   ar
    58    46    55   ar
    59    47    57   ar
    60    47    51   ar
    61    49    60    1
    62    51    59   ar
    63    53    64    1
    64    54    58   ar
    65    55    58   ar
    66    56    62   ar
    67    57    61   ar
    68    59    63   ar
    69    61    63   ar
    70    62    65   ar
    71    65    66   ar
    72    15    67    1
    73    16    68    1
    74    17    69    1
    75    18    70    1
    76    19    71    1
    77    20    72    1
    78    21    73    1
    79    22    74    1
    80    22    75    1
    81    23    76    1
    82    23    77    1
    83    24    78    1
    84    24    79    1
    85    25    80    1
    86    25    81    1
    87    27    82    1
    88    27    83    1
    89    28    84    1
    90    29    85    1
    91    30    86    1
    92    30    87    1
    93    31    88    1
    94    33    89    1
    95    34    90    1
    96    34    91    1
    97    36    92    1
    98    41    93    1
    99    42    94    1
   100    42    95    1
   101    42    96    1
   102    43    97    1
   103    43    98    1
   104    43    99    1
   105    44   100    1
   106    45   101    1
   107    46   102    1
   108    49   103    1
   109    49   104    1
   110    50   105    1
   111    53   106    1
   112    53   107    1
   113    54   108    1
   114    55   109    1
   115    57   110    1
   116    58   111    1
   117    59   112    1
   118    61   113    1
   119    62   114    1
   120    63   115    1
   121    65   116    1
   122    66   117    1
@<TRIPOS>MOLECULE
123882
 117 122 0 0 0
SMALL
GASTEIGER

@<TRIPOS>ATOM
      1 S         -16.1727   -4.8647    2.9268 S.2     3  UNK3       -0.0993
      2 O         -13.0487   -7.6585   -5.5758 O.2     1  UNK1       -0.2755
      3 O         -14.4125  -11.3120    4.4043 O.2     4  LEU4       -0.2738
      4 O         -13.6770   -6.9965   -2.0205 O.2     1  UNK1       -0.2737
      5 O         -13.5522   -9.4166    0.9410 O.2     5  TRP5       -0.2738
      6 O         -10.7083   -9.2423   -1.4781 O.2     6  ASP6       -0.2738
      7 O         -17.8728   -7.8178    3.6812 O.2     3  UNK3       -0.2734
      8 O         -17.0957   -9.1019   -0.2935 O.2     2  ASP2       -0.2737
      9 OD1       -10.5569  -12.9187    1.7149 O.co2   6  ASP6       -0.5497
     10 OD2       -10.9632  -14.3427   -0.0327 O.co2   6  ASP6       -0.5497
     11 OD1       -17.8999   -6.1839   -4.4915 O.co2   2  ASP2       -0.5497
     12 OD2       -17.0907   -8.2495   -5.0718 O.co2   2  ASP2       -0.5497
     13 N         -14.0244   -9.3171   -6.8121 N.am    1  UNK1       -0.2984
     14 N         -14.3300  -10.2853   -9.5302 N.pl3   1  UNK1       -0.3269
     15 N         -12.7687  -10.0513   -2.1122 N.am    1  UNK1       -0.3020
     16 N         -13.9826   -9.2527    3.4990 N.am    5  TRP5       -0.3022
     17 N         -16.3610   -8.9711    2.4219 N.am    4  LEU4       -0.3022
     18 N         -11.5266  -10.4653    1.1370 N.am    6  ASP6       -0.3021
     19 N         -15.3296   -8.4658   -2.5777 N.am    2  ASP2       -0.3021
     20 N         -16.5018   -6.9941    0.3016 N.am    3  UNK3       -0.2984
     21 NE1       -12.2770   -6.9893    6.8716 N.ar    5  TRP5       -0.3604
     22 C         -14.2669   -8.3806   -7.9121 C.3     1  UNK1        0.0304
     23 C         -14.4977  -10.6886   -7.0319 C.3     1  UNK1        0.0304
     24 C         -14.9837   -9.0229   -9.1126 C.3     1  UNK1        0.0280
     25 C         -14.0459  -11.2254   -8.4100 C.3     1  UNK1        0.0280
     26 C         -13.4966   -8.8040   -5.6361 C.2     1  UNK1        0.2179
     27 C         -13.4255   -9.7464   -4.4516 C.3     1  UNK1        0.0510
     28 C         -12.9916   -9.0449   -3.1617 C.3     1  UNK1        0.1076
     29 CA        -16.2645  -10.1362    3.3213 C.3     4  LEU4        0.0997
     30 CB        -16.8035  -11.3668    2.5671 C.3     4  LEU4       -0.0236
     31 CA        -12.5779   -9.5093    3.1691 C.3     5  TRP5        0.1034
     32 C         -13.3753  -10.2912  -10.5542 C.ar    1  UNK1        0.0298
     33 CG        -16.8999  -12.6950    3.3439 C.3     4  LEU4       -0.0446
     34 CB        -11.6852   -8.3008    3.4733 C.3     5  TRP5        0.0013
     35 C         -14.8027  -10.3266    3.7858 C.2     4  LEU4        0.2340
     36 CA        -11.6624  -11.0884   -0.1823 C.3     6  ASP6        0.1045
     37 C         -14.0170   -8.0374   -2.5852 C.2     1  UNK1        0.2344
     38 CG        -11.6880   -7.9179    4.9302 C.ar    5  TRP5       -0.0201
     39 C         -12.6087   -9.7876    1.6480 C.2     5  TRP5        0.2343
     40 C         -11.6468  -10.0168   -1.3000 C.2     6  ASP6        0.2343
     41 CA        -16.4021   -7.6082   -2.0982 C.3     2  ASP2        0.1045
     42 CD2       -17.6984  -12.5691    4.6395 C.3     4  LEU4       -0.0626
     43 CD1       -17.5275  -13.7687    2.4479 C.3     4  LEU4       -0.0626
     44 C         -17.4058   -6.9300    1.4434 C.3     3  UNK3        0.1311
     45 C         -12.7829   -9.1280  -11.0674 C.ar    1  UNK1       -0.0407
     46 C         -12.9695  -11.5089  -11.1297 C.ar    1  UNK1       -0.0407
     47 CD2       -10.8248   -8.4120    5.9618 C.ar    5  TRP5        0.0029
     48 C         -17.2229   -7.9207    2.6378 C.2     3  UNK3        0.2390
     49 CB        -10.5338  -12.0712   -0.4715 C.3     6  ASP6        0.0138
     50 CD1       -12.5579   -7.0292    5.5346 C.ar    5  TRP5        0.0060
     51 CE2       -11.2156   -7.8134    7.1616 C.ar    5  TRP5        0.0467
     52 C         -16.6871   -7.9902   -0.6321 C.2     2  ASP2        0.2345
     53 CB        -17.7057   -7.8459   -2.8497 C.3     2  ASP2        0.0138
     54 C         -11.8156   -9.1776  -12.0801 C.ar    1  UNK1       -0.0600
     55 C         -12.0078  -11.5684  -12.1446 C.ar    1  UNK1       -0.0600
     56 C         -17.4208   -5.4971    1.9305 C.ar    3  UNK3        0.0189
     57 CE3        -9.7538   -9.3281    5.9895 C.ar    5  TRP5       -0.0523
     58 C         -11.4250  -10.3983  -12.6181 C.ar    1  UNK1       -0.0616
     59 CZ2       -10.5896   -8.0830    8.3856 C.ar    5  TRP5       -0.0378
     60 CG        -10.7014  -13.2283    0.4942 C.2     6  ASP6        0.0440
     61 CZ3        -9.1134   -9.6056    7.2033 C.ar    5  TRP5       -0.0611
     62 C         -18.3540   -4.5220    1.6225 C.ar    3  UNK3       -0.0493
     63 CH2        -9.5269   -8.9910    8.3829 C.ar    5  TRP5       -0.0598
     64 CG        -17.5350   -7.3719   -4.2757 C.2     2  ASP2        0.0440
     65 C         -18.0637   -3.2714    2.2363 C.ar    3  UNK3       -0.0544
     66 C         -16.9118   -3.3237    2.9877 C.ar    3  UNK3       -0.0240
     67 H         -13.6037  -10.4163   -1.6654 H       1  UNK1        0.1495
     68 H         -14.4278   -8.5726    2.8896 H       5  TRP5        0.1495
     69 H         -15.9966   -9.0890    1.4731 H       4  LEU4        0.1495
     70 H         -11.0588  -11.0970    1.7989 H       6  ASP6        0.1495
     71 H         -15.6243   -9.2269   -3.1740 H       2  ASP2        0.1495
     72 H         -16.1200   -6.1214   -0.0461 H       3  UNK3        0.1498
     73 HE1       -12.7854   -6.4462    7.5536 H       5  TRP5        0.1653
     74 H         -13.2930   -7.9815   -8.2179 H       1  UNK1        0.0480
     75 H         -14.8616   -7.5423   -7.5311 H       1  UNK1        0.0480
     76 H         -15.5922  -10.6710   -6.9659 H       1  UNK1        0.0480
     77 H         -14.1363  -11.3656   -6.2544 H       1  UNK1        0.0480
     78 H         -16.0141   -9.2696   -8.8235 H       1  UNK1        0.0479
     79 H         -15.0868   -8.3126   -9.9405 H       1  UNK1        0.0479
     80 H         -12.9659  -11.4156   -8.3424 H       1  UNK1        0.0479
     81 H         -14.5431  -12.1824   -8.6065 H       1  UNK1        0.0479
     82 H         -12.6838  -10.5175   -4.6978 H       1  UNK1        0.0381
     83 H         -14.3871  -10.2532   -4.3268 H       1  UNK1        0.0381
     84 H         -12.0617   -8.4931   -3.3438 H       1  UNK1        0.0599
     85 HA        -16.8613   -9.9382    4.2169 H       4  LEU4        0.0594
     86 HB1       -16.1748  -11.5361    1.6810 H       4  LEU4        0.0290
     87 HB2       -17.8017  -11.1185    2.1795 H       4  LEU4        0.0290
     88 HA        -12.2293  -10.4055    3.6947 H       5  TRP5        0.0598
     89 HG        -15.8924  -13.0447    3.5928 H       4  LEU4        0.0296
     90 HB1       -12.0133   -7.4348    2.8819 H       5  TRP5        0.0337
     91 HB2       -10.6560   -8.5075    3.1545 H       5  TRP5        0.0337
     92 HA        -12.6260  -11.6155   -0.1945 H       6  ASP6        0.0598
     93 HA        -16.0983   -6.5575   -2.1666 H       2  ASP2        0.0598
     94 HD21      -18.6997  -12.1681    4.4515 H       4  LEU4        0.0232
     95 HD22      -17.1940  -11.9128    5.3549 H       4  LEU4        0.0232
     96 HD23      -17.8101  -13.5464    5.1220 H       4  LEU4        0.0232
     97 HD11      -18.5548  -13.5074    2.1721 H       4  LEU4        0.0232
     98 HD12      -17.5499  -14.7374    2.9586 H       4  LEU4        0.0232
     99 HD13      -16.9492  -13.8929    1.5260 H       4  LEU4        0.0232
    100 H         -18.4069   -7.1661    1.0532 H       3  UNK3        0.0651
    101 H         -13.0319   -8.1506  -10.6671 H       1  UNK1        0.0636
    102 H         -13.4205  -12.4399  -10.7932 H       1  UNK1        0.0636
    103 HB1        -9.5482  -11.6142   -0.3256 H       6  ASP6        0.0348
    104 HB2       -10.5848  -12.4279   -1.5073 H       6  ASP6        0.0348
    105 HD1       -13.3765   -6.4534    5.1231 H       5  TRP5        0.0810
    106 HB1       -18.5292   -7.2968   -2.3753 H       2  ASP2        0.0348
    107 HB2       -17.9892   -8.9060   -2.8466 H       2  ASP2        0.0348
    108 H         -11.3638   -8.2551  -12.4350 H       1  UNK1        0.0618
    109 H         -11.7174  -12.5292  -12.5591 H       1  UNK1        0.0618
    110 HE3        -9.4328   -9.8254    5.0784 H       5  TRP5        0.0624
    111 H         -10.6713  -10.4370  -13.3979 H       1  UNK1        0.0618
    112 HZ2       -10.9203   -7.6148    9.3061 H       5  TRP5        0.0638
    113 HZ3        -8.2931  -10.3182    7.2192 H       5  TRP5        0.0618
    114 H         -19.2072   -4.7032    0.9778 H       3  UNK3        0.0626
    115 HH2        -9.0225   -9.2285    9.3157 H       5  TRP5        0.0618
    116 H         -18.6682   -2.3796    2.1273 H       3  UNK3        0.0623
    117 H         -16.4589   -2.5276    3.5607 H       3  UNK3        0.0693
@<TRIPOS>BOND
     1     1    56   ar
     2     1    66   ar
     3     2    26    2
     4     3    35    2
     5     4    37    2
     6     5    39    2
     7     6    40    2
     8     7    48    2
     9     8    52    2
    10     9    60   ar
    11    10    60   ar
    12    11    64   ar
    13    12    64   ar
    14    13    22    1
    15    13    23    1
    16    14    24    1
    17    14    25    1
    18    14    32    1
    19    15    28    1
    20    15    40   am
    21    16    35   am
    22    16    31    1
    23    17    48   am
    24    17    29    1
    25    18    39   am
    26    18    36    1
    27    19    37   am
    28    19    41    1
    29    20    52   am
    30    20    44    1
    31    21    50   ar
    32    21    51   ar
    33    22    24    1
    34    23    25    1
    35    26    27    1
    36    26    13   am
    37    28    37    1
    38    28    27    1
    39    29    35    1
    40    29    30    1
    41    30    33    1
    42    31    39    1
    43    31    34    1
    44    32    45   ar
    45    32    46   ar
    46    33    43    1
    47    33    42    1
    48    34    38    1
    49    36    40    1
    50    36    49    1
    51    38    47   ar
    52    38    50   ar
    53    41    52    1
    54    41    53    1
    55    44    48    1
    56    44    56    1
    57    45    54   ar
    58    46    55   ar
    59    47    57   ar
    60    47    51   ar
    61    49    60    1
    62    51    59   ar
    63    53    64    1
    64    54    58   ar
    65    55    58   ar
    66    56    62   ar
    67    57    61   ar
    68    59    63   ar
    69    61    63   ar
    70    62    65   ar
    71    65    66   ar
    72    15    67    1
    73    16    68    1
    74    17    69    1
    75    18    70    1
    76    19    71    1
    77    20    72    1
    78    21    73    1
    79    22    74    1
    80    22    75    1
    81    23    76    1
    82    23    77    1
    83    24    78    1
    84    24    79    1
    85    25    80    1
    86    25    81    1
    87    27    82    1
    88    27    83    1
    89    28    84    1
    90    29    85    1
    91    30    86    1
    92    30    87    1
    93    31    88    1
    94    33    89    1
    95    34    90    1
    96    34    91    1
    97    36    92    1
    98    41    93    1
    99    42    94    1
   100    42    95    1
   101    42    96    1
   102    43    97    1
   103    43    98    1
   104    43    99    1
   105    44   100    1
   106    45   101    1
   107    46   102    1
   108    49   103    1
   109    49   104    1
   110    50   105    1
   111    53   106    1
   112    53   107    1
   113    54   108    1
   114    55   109    1
   115    57   110    1
   116    58   111    1
   117    59   112    1
   118    61   113    1
   119    62   114    1
   120    63   115    1
   121    65   116    1
   122    66   117    1
@<TRIPOS>MOLECULE
123882
 117 122 0 0 0
SMALL
GASTEIGER

@<TRIPOS>ATOM
      1 S         -17.6833   -4.1880    0.7579 S.2     3  UNK3       -0.0993
      2 O         -11.5016  -10.7686   -5.0455 O.2     1  UNK1       -0.2755
      3 O         -14.4672  -11.2041    4.5846 O.2     4  LEU4       -0.2738
      4 O         -13.6138   -6.8187   -2.8560 O.2     1  UNK1       -0.2737
      5 O         -13.7513   -9.6004    0.9844 O.2     5  TRP5       -0.2738
      6 O         -10.9736   -9.0328   -1.2677 O.2     6  ASP6       -0.2738
      7 O         -17.9407   -7.8076    3.7595 O.2     3  UNK3       -0.2734
      8 O         -17.2921   -8.9995   -0.2745 O.2     2  ASP2       -0.2737
      9 OD1       -10.4878  -12.8201    1.7138 O.co2   6  ASP6       -0.5497
     10 OD2       -10.8612  -14.3117    0.0182 O.co2   6  ASP6       -0.5497
     11 OD1       -17.2486   -6.2058   -4.5347 O.co2   2  ASP2       -0.5497
     12 OD2       -16.5599   -8.3152   -5.1014 O.co2   2  ASP2       -0.5497
     13 N         -13.2975  -11.4068   -6.2965 N.am    1  UNK1       -0.2984
     14 N         -14.5939  -13.5761   -7.7702 N.pl3   1  UNK1       -0.3269
     15 N         -12.7376  -10.1459   -2.2312 N.am    1  UNK1       -0.3020
     16 N         -14.0001   -9.2011    3.5888 N.am    5  TRP5       -0.3022
     17 N         -16.3858   -8.9008    2.5114 N.am    4  LEU4       -0.3022
     18 N         -11.6393  -10.4873    1.1209 N.am    6  ASP6       -0.3021
     19 N         -15.0523   -8.4728   -2.1733 N.am    2  ASP2       -0.3021
     20 N         -16.5139   -6.9899    0.4345 N.am    3  UNK3       -0.2984
     21 NE1       -12.3392   -5.3494    1.4287 N.ar    5  TRP5       -0.3604
     22 C         -12.5122  -12.4843   -6.9018 C.3     1  UNK1        0.0304
     23 C         -14.6686  -11.2399   -6.8061 C.3     1  UNK1        0.0304
     24 C         -13.2119  -13.1637   -8.0883 C.3     1  UNK1        0.0280
     25 C         -15.3827  -12.5963   -6.9665 C.3     1  UNK1        0.0280
     26 C         -12.7029  -10.6552   -5.2909 C.2     1  UNK1        0.2179
     27 C         -13.6049   -9.7175   -4.5143 C.3     1  UNK1        0.0510
     28 C         -12.9435   -9.1275   -3.2653 C.3     1  UNK1        0.1076
     29 CA        -16.2880  -10.0785    3.3946 C.3     4  LEU4        0.0997
     30 CB        -16.7669  -11.3131    2.6046 C.3     4  LEU4       -0.0236
     31 CA        -12.6407   -9.5218    3.1541 C.3     5  TRP5        0.1034
     32 C         -14.8774  -14.9108   -7.4532 C.ar    1  UNK1        0.0298
     33 CG        -16.8533  -12.6532    3.3636 C.3     4  LEU4       -0.0446
     34 CB        -11.6555   -8.3776    3.4166 C.3     5  TRP5        0.0013
     35 C         -14.8413  -10.2464    3.9121 C.2     4  LEU4        0.2340
     36 CA        -11.7377  -11.1000   -0.2017 C.3     6  ASP6        0.1045
     37 C         -13.8651   -8.0146   -2.7130 C.2     1  UNK1        0.2344
     38 CG        -12.0722   -7.0520    2.8445 C.ar    5  TRP5       -0.0201
     39 C         -12.7448   -9.8629    1.6502 C.2     5  TRP5        0.2343
     40 C         -11.7600   -9.9795   -1.2656 C.2     6  ASP6        0.2343
     41 CA        -16.1999   -7.6061   -1.9488 C.3     2  ASP2        0.1045
     42 CD2       -17.6875  -12.5614    4.6397 C.3     4  LEU4       -0.0626
     43 CD1       -17.4332  -13.7323    2.4420 C.3     4  LEU4       -0.0626
     44 C         -17.4835   -6.8836    1.5249 C.3     3  UNK3        0.1311
     45 C         -16.1967  -15.3836   -7.5699 C.ar    1  UNK1       -0.0407
     46 C         -13.9125  -15.8251   -7.0080 C.ar    1  UNK1       -0.0407
     47 CD2       -12.8894   -6.0544    3.4701 C.ar    5  TRP5        0.0029
     48 C         -17.2769   -7.8708    2.7222 C.2     3  UNK3        0.2390
     49 CB        -10.5686  -12.0303   -0.4970 C.3     6  ASP6        0.0138
     50 CD1       -11.7489   -6.5721    1.5913 C.ar    5  TRP5        0.0060
     51 CE2       -13.0246   -4.9973    2.5687 C.ar    5  TRP5        0.0467
     52 C         -16.7343   -7.9362   -0.5430 C.2     2  ASP2        0.2345
     53 CB        -17.3329   -7.9075   -2.9237 C.3     2  ASP2        0.0138
     54 C         -16.5404  -16.7015   -7.2505 C.ar    1  UNK1       -0.0600
     55 C         -14.2500  -17.1445   -6.6799 C.ar    1  UNK1       -0.0600
     56 C         -17.5835   -5.4266    1.9642 C.ar    3  UNK3        0.0189
     57 CE3       -13.5419   -5.9615    4.7174 C.ar    5  TRP5       -0.0523
     58 C         -15.5645  -17.5832   -6.8013 C.ar    1  UNK1       -0.0616
     59 CZ2       -13.7587   -3.8423    2.8632 C.ar    5  TRP5       -0.0378
     60 CG        -10.6455  -13.1695    0.5044 C.2     6  ASP6        0.0440
     61 CZ3       -14.2836   -4.8164    5.0264 C.ar    5  TRP5       -0.0611
     62 C         -17.6961   -4.8659    3.2261 C.ar    3  UNK3       -0.0493
     63 CH2       -14.3790   -3.7687    4.1143 C.ar    5  TRP5       -0.0598
     64 CG        -16.9902   -7.4238   -4.3170 C.2     2  ASP2        0.0440
     65 C         -17.8653   -3.4498    3.2007 C.ar    3  UNK3       -0.0544
     66 C         -17.8557   -2.9531    1.9202 C.ar    3  UNK3       -0.0240
     67 H         -13.4777  -10.8034   -2.0296 H       1  UNK1        0.1495
     68 H         -14.4469   -8.5050    2.9967 H       5  TRP5        0.1495
     69 H         -15.9724   -8.9870    1.5799 H       4  LEU4        0.1495
     70 H         -11.1036  -11.0738    1.7729 H       6  ASP6        0.1495
     71 H         -15.2105   -9.4666   -2.0894 H       2  ASP2        0.1495
     72 H         -16.0530   -6.1364    0.1437 H       3  UNK3        0.1498
     73 HE1       -12.2892   -4.7957    0.5841 H       5  TRP5        0.1653
     74 H         -12.3137  -13.2165   -6.1100 H       1  UNK1        0.0480
     75 H         -11.5451  -12.0802   -7.2229 H       1  UNK1        0.0480
     76 H         -14.5799  -10.7464   -7.7817 H       1  UNK1        0.0480
     77 H         -15.2651  -10.5830   -6.1727 H       1  UNK1        0.0480
     78 H         -13.2723  -12.4452   -8.9162 H       1  UNK1        0.0479
     79 H         -12.6070  -13.9921   -8.4752 H       1  UNK1        0.0479
     80 H         -15.5640  -12.9977   -5.9601 H       1  UNK1        0.0479
     81 H         -16.3537  -12.4331   -7.4478 H       1  UNK1        0.0479
     82 H         -14.5026  -10.2720   -4.2163 H       1  UNK1        0.0381
     83 H         -13.8964   -8.9085   -5.1941 H       1  UNK1        0.0381
     84 H         -11.9776   -8.6707   -3.5108 H       1  UNK1        0.0599
     85 HA        -16.9217   -9.9119    4.2705 H       4  LEU4        0.0594
     86 HB1       -16.1039  -11.4552    1.7390 H       4  LEU4        0.0290
     87 HB2       -17.7576  -11.0872    2.1853 H       4  LEU4        0.0290
     88 HA        -12.2991  -10.4232    3.6770 H       5  TRP5        0.0598
     89 HG        -15.8438  -12.9814    3.6345 H       4  LEU4        0.0296
     90 HB1       -10.6647   -8.6388    3.0233 H       5  TRP5        0.0337
     91 HB2       -11.5311   -8.2611    4.5013 H       5  TRP5        0.0337
     92 HA        -12.6822  -11.6588   -0.2340 H       6  ASP6        0.0598
     93 HA        -15.9014   -6.5547   -2.0041 H       2  ASP2        0.0598
     94 HD21      -18.6913  -12.1774    4.4309 H       4  LEU4        0.0232
     95 HD22      -17.2151  -11.9058    5.3771 H       4  LEU4        0.0232
     96 HD23      -17.7924  -13.5472    5.1061 H       4  LEU4        0.0232
     97 HD11      -18.4594  -13.4924    2.1437 H       4  LEU4        0.0232
     98 HD12      -17.4459  -14.7062    2.9433 H       4  LEU4        0.0232
     99 HD13      -16.8300  -13.8347    1.5334 H       4  LEU4        0.0232
    100 H         -18.4653   -7.1583    1.1127 H       3  UNK3        0.0651
    101 H         -16.9756  -14.7158   -7.9294 H       1  UNK1        0.0636
    102 H         -12.8804  -15.5223   -6.8624 H       1  UNK1        0.0636
    103 HB1        -9.6051  -11.5184   -0.3891 H       6  ASP6        0.0348
    104 HB2       -10.6260  -12.4135   -1.5226 H       6  ASP6        0.0348
    105 HD1       -11.1728   -7.0153    0.7861 H       5  TRP5        0.0810
    106 HB1       -18.2528   -7.4019   -2.5996 H       2  ASP2        0.0348
    107 HB2       -17.5655   -8.9801   -2.9534 H       2  ASP2        0.0348
    108 H         -17.5710  -17.0293   -7.3485 H       1  UNK1        0.0618
    109 H         -13.4823  -17.8196   -6.3113 H       1  UNK1        0.0618
    110 HE3       -13.4815   -6.7806    5.4283 H       5  TRP5        0.0624
    111 H         -15.8266  -18.6030   -6.5368 H       1  UNK1        0.0618
    112 HZ2       -13.8559   -3.0352    2.1448 H       5  TRP5        0.0638
    113 HZ3       -14.7965   -4.7536    5.9821 H       5  TRP5        0.0618
    114 H         -17.6786   -5.4419    4.1442 H       3  UNK3        0.0626
    115 HH2       -14.9637   -2.8885    4.3674 H       5  TRP5        0.0618
    116 H         -17.9828   -2.8320    4.0816 H       3  UNK3        0.0623
    117 H         -17.9547   -1.9239    1.6053 H       3  UNK3        0.0693
@<TRIPOS>BOND
     1     1    56   ar
     2     1    66   ar
     3     2    26    2
     4     3    35    2
     5     4    37    2
     6     5    39    2
     7     6    40    2
     8     7    48    2
     9     8    52    2
    10     9    60   ar
    11    10    60   ar
    12    11    64   ar
    13    12    64   ar
    14    13    22    1
    15    13    23    1
    16    14    24    1
    17    14    25    1
    18    14    32    1
    19    15    28    1
    20    15    40   am
    21    16    35   am
    22    16    31    1
    23    17    48   am
    24    17    29    1
    25    18    39   am
    26    18    36    1
    27    19    37   am
    28    19    41    1
    29    20    52   am
    30    20    44    1
    31    21    50   ar
    32    21    51   ar
    33    22    24    1
    34    23    25    1
    35    26    27    1
    36    26    13   am
    37    28    37    1
    38    28    27    1
    39    29    35    1
    40    29    30    1
    41    30    33    1
    42    31    39    1
    43    31    34    1
    44    32    45   ar
    45    32    46   ar
    46    33    43    1
    47    33    42    1
    48    34    38    1
    49    36    40    1
    50    36    49    1
    51    38    47   ar
    52    38    50   ar
    53    41    52    1
    54    41    53    1
    55    44    48    1
    56    44    56    1
    57    45    54   ar
    58    46    55   ar
    59    47    57   ar
    60    47    51   ar
    61    49    60    1
    62    51    59   ar
    63    53    64    1
    64    54    58   ar
    65    55    58   ar
    66    56    62   ar
    67    57    61   ar
    68    59    63   ar
    69    61    63   ar
    70    62    65   ar
    71    65    66   ar
    72    15    67    1
    73    16    68    1
    74    17    69    1
    75    18    70    1
    76    19    71    1
    77    20    72    1
    78    21    73    1
    79    22    74    1
    80    22    75    1
    81    23    76    1
    82    23    77    1
    83    24    78    1
    84    24    79    1
    85    25    80    1
    86    25    81    1
    87    27    82    1
    88    27    83    1
    89    28    84    1
    90    29    85    1
    91    30    86    1
    92    30    87    1
    93    31    88    1
    94    33    89    1
    95    34    90    1
    96    34    91    1
    97    36    92    1
    98    41    93    1
    99    42    94    1
   100    42    95    1
   101    42    96    1
   102    43    97    1
   103    43    98    1
   104    43    99    1
   105    44   100    1
   106    45   101    1
   107    46   102    1
   108    49   103    1
   109    49   104    1
   110    50   105    1
   111    53   106    1
   112    53   107    1
   113    54   108    1
   114    55   109    1
   115    57   110    1
   116    58   111    1
   117    59   112    1
   118    61   113    1
   119    62   114    1
   120    63   115    1
   121    65   116    1
   122    66   117    1
@<TRIPOS>MOLECULE
123882
 117 122 0 0 0
SMALL
GASTEIGER

@<TRIPOS>ATOM
      1 S         -18.9873   -4.7497    2.2331 S.2     3  UNK3       -0.0993
      2 O         -12.8128   -7.7931   -5.7739 O.2     1  UNK1       -0.2755
      3 O         -14.4200  -11.1573    4.3598 O.2     4  LEU4       -0.2738
      4 O         -13.4693   -6.8927   -2.2938 O.2     1  UNK1       -0.2737
      5 O         -13.4718   -9.3149    0.7991 O.2     5  TRP5       -0.2738
      6 O         -10.6110   -9.4053   -1.5401 O.2     6  ASP6       -0.2738
      7 O         -17.1522   -7.4215    3.7130 O.2     3  UNK3       -0.2734
      8 O         -16.6357   -8.9732   -0.3955 O.2     2  ASP2       -0.2737
      9 OD1       -10.8148  -13.1588    1.6234 O.co2   6  ASP6       -0.5497
     10 OD2       -11.2607  -14.4542   -0.2110 O.co2   6  ASP6       -0.5497
     11 OD1       -16.7255   -6.9692   -5.0374 O.co2   2  ASP2       -0.5497
     12 OD2       -18.7961   -6.2929   -4.3663 O.co2   2  ASP2       -0.5497
     13 N         -14.3186   -9.2409   -6.7206 N.am    1  UNK1       -0.2984
     14 N         -16.5449   -9.8523   -8.5834 N.pl3   1  UNK1       -0.3269
     15 N         -12.7302  -10.0490   -2.1710 N.am    1  UNK1       -0.3020
     16 N         -13.9648   -9.1511    3.3471 N.am    5  TRP5       -0.3022
     17 N         -16.3739   -8.9365    2.2206 N.am    4  LEU4       -0.3022
     18 N         -11.5760  -10.5622    1.0684 N.am    6  ASP6       -0.3021
     19 N         -15.1784   -8.3481   -2.7351 N.am    2  ASP2       -0.3021
     20 N         -16.4834   -6.7517    0.1117 N.am    3  UNK3       -0.2984
     21 NE1        -8.2456   -8.3578    2.1996 N.ar    5  TRP5       -0.3604
     22 C         -14.9347  -10.5674   -6.8132 C.3     1  UNK1        0.0304
     23 C         -14.7792   -8.2535   -7.7049 C.3     1  UNK1        0.0304
     24 C         -15.5135  -10.8421   -8.2117 C.3     1  UNK1        0.0280
     25 C         -16.2595   -8.4582   -8.0927 C.3     1  UNK1        0.0280
     26 C         -13.4752   -8.8275   -5.6999 C.2     1  UNK1        0.2179
     27 C         -13.3384   -9.7705   -4.5201 C.3     1  UNK1        0.0510
     28 C         -12.8690   -9.0588   -3.2487 C.3     1  UNK1        0.1076
     29 CA        -16.2563  -10.0414    3.1785 C.3     4  LEU4        0.0997
     30 CB        -16.7331  -11.3630    2.5399 C.3     4  LEU4       -0.0236
     31 CA        -12.5440   -9.4035    3.0447 C.3     5  TRP5        0.1034
     32 C         -17.9038  -10.1823   -8.3979 C.ar    1  UNK1        0.0298
     33 CG        -18.2658  -11.5393    2.4301 C.3     4  LEU4       -0.0446
     34 CB        -11.7404   -8.1282    3.3259 C.3     5  TRP5        0.0013
     35 C         -14.7950  -10.2028    3.6807 C.2     4  LEU4        0.2340
     36 CA        -11.7116  -11.1776   -0.2500 C.3     6  ASP6        0.1045
     37 C         -13.8497   -7.9703   -2.7506 C.2     1  UNK1        0.2344
     38 CG        -10.2561   -8.2371    3.1600 C.ar    5  TRP5       -0.0201
     39 C         -12.5806   -9.7516    1.5365 C.2     5  TRP5        0.2343
     40 C         -11.6058  -10.1066   -1.3653 C.2     6  ASP6        0.2343
     41 CA        -16.2192   -7.4525   -2.2487 C.3     2  ASP2        0.1045
     42 CD2       -18.9503  -10.5308    1.5085 C.3     4  LEU4       -0.0626
     43 CD1       -18.5796  -12.9538    1.9272 C.3     4  LEU4       -0.0626
     44 C         -17.2998   -6.7930    1.3260 C.3     3  UNK3        0.1311
     45 C         -18.8909   -9.4099   -9.0353 C.ar    1  UNK1       -0.0407
     46 C         -18.3484  -11.2311   -7.5790 C.ar    1  UNK1       -0.0407
     47 CD2        -9.2537   -8.2922    4.1858 C.ar    5  TRP5        0.0029
     48 C         -16.8780   -7.6970    2.5423 C.2     3  UNK3        0.2390
     49 CB        -10.6250  -12.2120   -0.5129 C.3     6  ASP6        0.0138
     50 CD1        -9.5833   -8.2361    1.9540 C.ar    5  TRP5        0.0060
     51 CE2        -8.0092   -8.3509    3.5534 C.ar    5  TRP5        0.0467
     52 C         -16.4424   -7.8132   -0.7652 C.2     2  ASP2        0.2345
     53 CB        -17.5581   -7.6803   -2.9428 C.3     2  ASP2        0.0138
     54 C         -20.2551   -9.6548   -8.8466 C.ar    1  UNK1       -0.0600
     55 C         -19.7127  -11.4808   -7.3843 C.ar    1  UNK1       -0.0600
     56 C         -17.4362   -5.3667    1.8238 C.ar    3  UNK3        0.0189
     57 CE3        -9.2822   -8.2865    5.5969 C.ar    5  TRP5       -0.0523
     58 C         -20.6664  -10.6901   -8.0155 C.ar    1  UNK1       -0.0616
     59 CZ2        -6.7983   -8.3996    4.2557 C.ar    5  TRP5       -0.0378
     60 CG        -10.9295  -13.3936    0.3851 C.2     6  ASP6        0.0440
     61 CZ3        -8.0795   -8.3286    6.3153 C.ar    5  TRP5       -0.0611
     62 C         -16.4508   -4.4156    2.0283 C.ar    3  UNK3       -0.0493
     63 CH2        -6.8564   -8.3826    5.6516 C.ar    5  TRP5       -0.0598
     64 CG        -17.6944   -6.8988   -4.2363 C.2     2  ASP2        0.0440
     65 C         -16.9730   -3.1885    2.5298 C.ar    3  UNK3       -0.0544
     66 C         -18.3374   -3.2406    2.7007 C.ar    3  UNK3       -0.0240
     67 H         -13.5858  -10.3433   -1.7119 H       1  UNK1        0.1495
     68 H         -14.4011   -8.5323    2.6688 H       5  TRP5        0.1495
     69 H         -16.1735   -9.1370    1.2361 H       4  LEU4        0.1495
     70 H         -11.1582  -11.1988    1.7560 H       6  ASP6        0.1495
     71 H         -15.4342   -9.3170   -2.8428 H       2  ASP2        0.1495
     72 H         -16.3991   -5.8440   -0.3308 H       3  UNK3        0.1498
     73 HE1        -7.5367   -8.4290    1.4835 H       5  TRP5        0.1653
     74 H         -15.7258  -10.6143   -6.0569 H       1  UNK1        0.0480
     75 H         -14.1809  -11.3228   -6.5674 H       1  UNK1        0.0480
     76 H         -14.1424   -8.3717   -8.5904 H       1  UNK1        0.0480
     77 H         -14.6314   -7.2365   -7.3265 H       1  UNK1        0.0480
     78 H         -14.7052  -10.7634   -8.9511 H       1  UNK1        0.0479
     79 H         -15.8740  -11.8734   -8.2958 H       1  UNK1        0.0479
     80 H         -16.8787   -8.2432   -7.2150 H       1  UNK1        0.0479
     81 H         -16.5191   -7.7410   -8.8798 H       1  UNK1        0.0479
     82 H         -12.6079  -10.5402   -4.8013 H       1  UNK1        0.0381
     83 H         -14.2864  -10.2835   -4.3339 H       1  UNK1        0.0381
     84 H         -11.9044   -8.5724   -3.4339 H       1  UNK1        0.0599
     85 HA        -16.8587   -9.8179    4.0663 H       4  LEU4        0.0594
     86 HB1       -16.3538  -12.2021    3.1379 H       4  LEU4        0.0290
     87 HB2       -16.2777  -11.4765    1.5464 H       4  LEU4        0.0290
     88 HA        -12.1810  -10.2615    3.6209 H       5  TRP5        0.0598
     89 HG        -18.7010  -11.4356    3.4318 H       4  LEU4        0.0296
     90 HB1       -11.9562   -7.7982    4.3513 H       5  TRP5        0.0337
     91 HB2       -12.0987   -7.3151    2.6794 H       5  TRP5        0.0337
     92 HA        -12.7026  -11.6496   -0.2863 H       6  ASP6        0.0598
     93 HA        -15.8887   -6.4123   -2.3415 H       2  ASP2        0.0598
     94 HD21      -18.4940  -10.5270    0.5143 H       4  LEU4        0.0232
     95 HD22      -18.9124   -9.5204    1.9202 H       4  LEU4        0.0232
     96 HD23      -20.0111  -10.7750    1.3826 H       4  LEU4        0.0232
     97 HD11      -18.1611  -13.1205    0.9283 H       4  LEU4        0.0232
     98 HD12      -19.6613  -13.1175    1.8709 H       4  LEU4        0.0232
     99 HD13      -18.1643  -13.7102    2.6008 H       4  LEU4        0.0232
    100 H         -18.2814   -7.1745    1.0126 H       3  UNK3        0.0651
    101 H         -18.5946   -8.5885   -9.6823 H       1  UNK1        0.0636
    102 H         -17.6493  -11.8485   -7.0264 H       1  UNK1        0.0636
    103 HB1        -9.6259  -11.8221   -0.2868 H       6  ASP6        0.0348
    104 HB2       -10.6296  -12.5249   -1.5641 H       6  ASP6        0.0348
    105 HD1        -9.9489   -8.1940    0.9344 H       5  TRP5        0.0810
    106 HB1       -18.3768   -7.3692   -2.2788 H       2  ASP2        0.0348
    107 HB2       -17.7212   -8.7432   -3.1608 H       2  ASP2        0.0348
    108 H         -20.9885   -9.0177   -9.3315 H       1  UNK1        0.0618
    109 H         -20.0229  -12.2764   -6.7129 H       1  UNK1        0.0618
    110 HE3       -10.2297   -8.2499    6.1256 H       5  TRP5        0.0624
    111 H         -21.7235  -10.8655   -7.8422 H       1  UNK1        0.0618
    112 HZ2        -5.8478   -8.4505    3.7360 H       5  TRP5        0.0638
    113 HZ3        -8.1055   -8.3241    7.4015 H       5  TRP5        0.0618
    114 H         -15.3997   -4.5969    1.8314 H       3  UNK3        0.0626
    115 HH2        -5.9334   -8.4196    6.2243 H       5  TRP5        0.0618
    116 H         -16.3749   -2.3162    2.7607 H       3  UNK3        0.0623
    117 H         -18.9890   -2.4640    3.0750 H       3  UNK3        0.0693
@<TRIPOS>BOND
     1     1    56   ar
     2     1    66   ar
     3     2    26    2
     4     3    35    2
     5     4    37    2
     6     5    39    2
     7     6    40    2
     8     7    48    2
     9     8    52    2
    10     9    60   ar
    11    10    60   ar
    12    11    64   ar
    13    12    64   ar
    14    13    22    1
    15    13    23    1
    16    14    24    1
    17    14    25    1
    18    14    32    1
    19    15    28    1
    20    15    40   am
    21    16    35   am
    22    16    31    1
    23    17    48   am
    24    17    29    1
    25    18    39   am
    26    18    36    1
    27    19    37   am
    28    19    41    1
    29    20    52   am
    30    20    44    1
    31    21    50   ar
    32    21    51   ar
    33    22    24    1
    34    23    25    1
    35    26    27    1
    36    26    13   am
    37    28    37    1
    38    28    27    1
    39    29    35    1
    40    29    30    1
    41    30    33    1
    42    31    39    1
    43    31    34    1
    44    32    45   ar
    45    32    46   ar
    46    33    43    1
    47    33    42    1
    48    34    38    1
    49    36    40    1
    50    36    49    1
    51    38    47   ar
    52    38    50   ar
    53    41    52    1
    54    41    53    1
    55    44    48    1
    56    44    56    1
    57    45    54   ar
    58    46    55   ar
    59    47    57   ar
    60    47    51   ar
    61    49    60    1
    62    51    59   ar
    63    53    64    1
    64    54    58   ar
    65    55    58   ar
    66    56    62   ar
    67    57    61   ar
    68    59    63   ar
    69    61    63   ar
    70    62    65   ar
    71    65    66   ar
    72    15    67    1
    73    16    68    1
    74    17    69    1
    75    18    70    1
    76    19    71    1
    77    20    72    1
    78    21    73    1
    79    22    74    1
    80    22    75    1
    81    23    76    1
    82    23    77    1
    83    24    78    1
    84    24    79    1
    85    25    80    1
    86    25    81    1
    87    27    82    1
    88    27    83    1
    89    28    84    1
    90    29    85    1
    91    30    86    1
    92    30    87    1
    93    31    88    1
    94    33    89    1
    95    34    90    1
    96    34    91    1
    97    36    92    1
    98    41    93    1
    99    42    94    1
   100    42    95    1
   101    42    96    1
   102    43    97    1
   103    43    98    1
   104    43    99    1
   105    44   100    1
   106    45   101    1
   107    46   102    1
   108    49   103    1
   109    49   104    1
   110    50   105    1
   111    53   106    1
   112    53   107    1
   113    54   108    1
   114    55   109    1
   115    57   110    1
   116    58   111    1
   117    59   112    1
   118    61   113    1
   119    62   114    1
   120    63   115    1
   121    65   116    1
   122    66   117    1
@<TRIPOS>MOLECULE
123882
 117 122 0 0 0
SMALL
GASTEIGER

@<TRIPOS>ATOM
      1 S         -17.8176   -4.8195    3.5557 S.2     3  UNK3       -0.0993
      2 O         -13.1680   -7.5657   -5.5283 O.2     1  UNK1       -0.2755
      3 O         -14.3549  -11.3605    4.3434 O.2     4  LEU4       -0.2738
      4 O         -13.7837   -7.1118   -1.6570 O.2     1  UNK1       -0.2737
      5 O         -13.4771   -9.3627    0.8922 O.2     5  TRP5       -0.2738
      6 O         -10.6865   -9.2569   -1.5549 O.2     6  ASP6       -0.2738
      7 O         -17.0173   -7.6137    3.9834 O.2     3  UNK3       -0.2734
      8 O         -17.4739   -8.9304   -0.2756 O.2     2  ASP2       -0.2737
      9 OD1       -10.5489  -12.9196    1.6751 O.co2   6  ASP6       -0.5497
     10 OD2       -10.9317  -14.3515   -0.0704 O.co2   6  ASP6       -0.5497
     11 OD1       -16.7301   -8.3076   -4.8121 O.co2   2  ASP2       -0.5497
     12 OD2       -17.9705   -6.3821   -4.8327 O.co2   2  ASP2       -0.5497
     13 N         -14.3359   -9.1770   -6.6823 N.am    1  UNK1       -0.2984
     14 N         -16.5018   -9.8684   -8.6092 N.pl3   1  UNK1       -0.3269
     15 N         -12.7914  -10.0157   -2.0933 N.am    1  UNK1       -0.3020
     16 N         -13.9566   -9.2972    3.4374 N.am    5  TRP5       -0.3022
     17 N         -16.3920   -9.0608    2.3662 N.am    4  LEU4       -0.3022
     18 N         -11.4763  -10.4585    1.0952 N.am    6  ASP6       -0.3021
     19 N         -15.4428   -8.4133   -2.5186 N.am    2  ASP2       -0.3021
     20 N         -16.5295   -6.9826    0.3820 N.am    3  UNK3       -0.2984
     21 NE1       -11.4672   -8.2230    7.1748 N.ar    5  TRP5       -0.3604
     22 C         -14.9321  -10.5150   -6.7643 C.3     1  UNK1        0.0304
     23 C         -14.7793   -8.2304   -7.7124 C.3     1  UNK1        0.0304
     24 C         -15.4745  -10.8368   -8.1680 C.3     1  UNK1        0.0280
     25 C         -16.2446   -8.4611   -8.1476 C.3     1  UNK1        0.0280
     26 C         -13.6777   -8.6868   -5.5562 C.2     1  UNK1        0.2179
     27 C         -13.5243   -9.6511   -4.3906 C.3     1  UNK1        0.0510
     28 C         -13.0805   -8.9734   -3.0906 C.3     1  UNK1        0.1076
     29 CA        -16.2325  -10.2132    3.2735 C.3     4  LEU4        0.0997
     30 CB        -16.7560  -11.4676    2.5467 C.3     4  LEU4       -0.0236
     31 CA        -12.5447   -9.5284    3.1286 C.3     5  TRP5        0.1034
     32 C         -17.8626  -10.2054   -8.4380 C.ar    1  UNK1        0.0298
     33 CG        -16.8696  -12.7703    3.3645 C.3     4  LEU4       -0.0446
     34 CB        -11.6699   -8.3230    3.4913 C.3     5  TRP5        0.0013
     35 C         -14.7625  -10.3781    3.7283 C.2     4  LEU4        0.2340
     36 CA        -11.6273  -11.0850   -0.2207 C.3     6  ASP6        0.1045
     37 C         -14.1168   -8.0321   -2.4089 C.2     1  UNK1        0.2344
     38 CG        -11.6873   -8.0078    4.9652 C.ar    5  TRP5       -0.0201
     39 C         -12.5507   -9.7666    1.6037 C.2     5  TRP5        0.2343
     40 C         -11.6291  -10.0131   -1.3400 C.2     6  ASP6        0.2343
     41 CA        -16.4935   -7.5236   -2.0305 C.3     2  ASP2        0.1045
     42 CD2       -17.6706  -12.5977    4.6537 C.3     4  LEU4       -0.0626
     43 CD1       -17.5089  -13.8630    2.5001 C.3     4  LEU4       -0.0626
     44 C         -17.2899   -6.8648    1.6298 C.3     3  UNK3        0.1311
     45 C         -18.3174  -11.2056   -7.5658 C.ar    1  UNK1       -0.0407
     46 C         -18.8412   -9.4873   -9.1481 C.ar    1  UNK1       -0.0407
     47 CD2       -12.2193   -6.8363    5.6033 C.ar    5  TRP5        0.0029
     48 C         -16.8329   -7.8199    2.7847 C.2     3  UNK3        0.2390
     49 CB        -10.5104  -12.0782   -0.5158 C.3     6  ASP6        0.0138
     50 CD1       -11.2149   -8.8264    5.9749 C.ar    5  TRP5        0.0060
     51 CE2       -12.0660   -7.0004    6.9812 C.ar    5  TRP5        0.0467
     52 C         -16.8750   -7.8983   -0.5823 C.2     2  ASP2        0.2345
     53 CB        -17.7843   -7.6320   -2.8455 C.3     2  ASP2        0.0138
     54 C         -19.6832  -11.4649   -7.3952 C.ar    1  UNK1       -0.0600
     55 C         -20.2074   -9.7413   -8.9832 C.ar    1  UNK1       -0.0600
     56 C         -17.3884   -5.3790    1.9841 C.ar    3  UNK3        0.0189
     57 CE3       -12.8367   -5.6555    5.1386 C.ar    5  TRP5       -0.0523
     58 C         -20.6290  -10.7310   -8.1024 C.ar    1  UNK1       -0.0616
     59 CZ2       -12.4953   -6.0477    7.9146 C.ar    5  TRP5       -0.0378
     60 CG        -10.6808  -13.2331    0.4539 C.2     6  ASP6        0.0440
     61 CZ3       -13.2691   -4.6909    6.0572 C.ar    5  TRP5       -0.0611
     62 C         -17.3105   -4.2967    1.1129 C.ar    3  UNK3       -0.0493
     63 CH2       -13.0997   -4.8861    7.4258 C.ar    5  TRP5       -0.0598
     64 CG        -17.4679   -7.4088   -4.3067 C.2     2  ASP2        0.0440
     65 C         -17.5386   -3.0398    1.7443 C.ar    3  UNK3       -0.0544
     66 C         -17.8084   -3.1839    3.0829 C.ar    3  UNK3       -0.0240
     67 H         -13.6050  -10.4030   -1.6270 H       1  UNK1        0.1495
     68 H         -14.4036   -8.6349    2.8118 H       5  TRP5        0.1495
     69 H         -16.3104   -9.2287    1.3628 H       4  LEU4        0.1495
     70 H         -11.0210  -11.0989    1.7574 H       6  ASP6        0.1495
     71 H         -15.6978   -8.8169   -3.4255 H       2  ASP2        0.1495
     72 H         -15.7169   -6.3971    0.2113 H       3  UNK3        0.1498
     73 HE1       -11.2639   -8.6248    8.0784 H       5  TRP5        0.1653
     74 H         -15.7391  -10.5682   -6.0268 H       1  UNK1        0.0480
     75 H         -14.1703  -11.2505   -6.4853 H       1  UNK1        0.0480
     76 H         -14.1141   -8.3731   -8.5731 H       1  UNK1        0.0480
     77 H         -14.6574   -7.1972   -7.3722 H       1  UNK1        0.0480
     78 H         -14.6465  -10.7783   -8.8868 H       1  UNK1        0.0479
     79 H         -15.8277  -11.8728   -8.2272 H       1  UNK1        0.0479
     80 H         -16.9025   -8.2072   -7.3098 H       1  UNK1        0.0479
     81 H         -16.4744   -7.7738   -8.9705 H       1  UNK1        0.0479
     82 H         -12.7595  -10.3809   -4.6893 H       1  UNK1        0.0381
     83 H         -14.4475  -10.2143   -4.2293 H       1  UNK1        0.0381
     84 H         -12.1790   -8.3783   -3.2768 H       1  UNK1        0.0599
     85 HA        -16.8231  -10.0175    4.1736 H       4  LEU4        0.0594
     86 HB1       -16.1145  -11.6632    1.6756 H       4  LEU4        0.0290
     87 HB2       -17.7491  -11.2326    2.1377 H       4  LEU4        0.0290
     88 HA        -12.1973  -10.4386    3.6303 H       5  TRP5        0.0598
     89 HG        -15.8666  -13.1228    3.6275 H       4  LEU4        0.0296
     90 HB1       -11.9946   -7.4424    2.9224 H       5  TRP5        0.0337
     91 HB2       -10.6325   -8.5124    3.1876 H       5  TRP5        0.0337
     92 HA        -12.5928  -11.6094   -0.2167 H       6  ASP6        0.0598
     93 HA        -16.1324   -6.4881   -2.0651 H       2  ASP2        0.0598
     94 HD21      -18.6632  -12.1818    4.4522 H       4  LEU4        0.0232
     95 HD22      -17.1556  -11.9348    5.3554 H       4  LEU4        0.0232
     96 HD23      -17.8035  -13.5602    5.1597 H       4  LEU4        0.0232
     97 HD11      -18.5334  -13.5983    2.2167 H       4  LEU4        0.0232
     98 HD12      -17.5429  -14.8158    3.0393 H       4  LEU4        0.0232
     99 HD13      -16.9325  -14.0208    1.5822 H       4  LEU4        0.0232
    100 H         -18.3168   -7.1894    1.4041 H       3  UNK3        0.0651
    101 H         -17.6258  -11.7698   -6.9498 H       1  UNK1        0.0636
    102 H         -18.5350   -8.7029   -9.8348 H       1  UNK1        0.0636
    103 HB1        -9.5196  -11.6309   -0.3800 H       6  ASP6        0.0348
    104 HB2       -10.5752  -12.4371   -1.5503 H       6  ASP6        0.0348
    105 HD1       -10.7604   -9.8074    5.9349 H       5  TRP5        0.0810
    106 HB1       -18.5205   -6.9015   -2.4891 H       2  ASP2        0.0348
    107 HB2       -18.2420   -8.6243   -2.7469 H       2  ASP2        0.0348
    108 H         -19.9999  -12.2203   -6.6816 H       1  UNK1        0.0618
    109 H         -20.9355   -9.1479   -9.5272 H       1  UNK1        0.0618
    110 HE3       -12.9890   -5.4974    4.0752 H       5  TRP5        0.0624
    111 H         -21.6877  -10.9138   -7.9487 H       1  UNK1        0.0618
    112 HZ2       -12.3761   -6.2068    8.9805 H       5  TRP5        0.0638
    113 HZ3       -13.7533   -3.7882    5.6936 H       5  TRP5        0.0618
    114 H         -17.1145   -4.4005    0.0512 H       3  UNK3        0.0626
    115 HH2       -13.4527   -4.1314    8.1234 H       5  TRP5        0.0618
    116 H         -17.5184   -2.0847    1.2353 H       3  UNK3        0.0623
    117 H         -18.0238   -2.4094    3.8049 H       3  UNK3        0.0693
@<TRIPOS>BOND
     1     1    56   ar
     2     1    66   ar
     3     2    26    2
     4     3    35    2
     5     4    37    2
     6     5    39    2
     7     6    40    2
     8     7    48    2
     9     8    52    2
    10     9    60   ar
    11    10    60   ar
    12    11    64   ar
    13    12    64   ar
    14    13    22    1
    15    13    23    1
    16    14    24    1
    17    14    25    1
    18    14    32    1
    19    15    28    1
    20    15    40   am
    21    16    35   am
    22    16    31    1
    23    17    48   am
    24    17    29    1
    25    18    39   am
    26    18    36    1
    27    19    37   am
    28    19    41    1
    29    20    52   am
    30    20    44    1
    31    21    50   ar
    32    21    51   ar
    33    22    24    1
    34    23    25    1
    35    26    27    1
    36    26    13   am
    37    28    37    1
    38    28    27    1
    39    29    35    1
    40    29    30    1
    41    30    33    1
    42    31    39    1
    43    31    34    1
    44    32    45   ar
    45    32    46   ar
    46    33    43    1
    47    33    42    1
    48    34    38    1
    49    36    40    1
    50    36    49    1
    51    38    47   ar
    52    38    50   ar
    53    41    52    1
    54    41    53    1
    55    44    48    1
    56    44    56    1
    57    45    54   ar
    58    46    55   ar
    59    47    57   ar
    60    47    51   ar
    61    49    60    1
    62    51    59   ar
    63    53    64    1
    64    54    58   ar
    65    55    58   ar
    66    56    62   ar
    67    57    61   ar
    68    59    63   ar
    69    61    63   ar
    70    62    65   ar
    71    65    66   ar
    72    15    67    1
    73    16    68    1
    74    17    69    1
    75    18    70    1
    76    19    71    1
    77    20    72    1
    78    21    73    1
    79    22    74    1
    80    22    75    1
    81    23    76    1
    82    23    77    1
    83    24    78    1
    84    24    79    1
    85    25    80    1
    86    25    81    1
    87    27    82    1
    88    27    83    1
    89    28    84    1
    90    29    85    1
    91    30    86    1
    92    30    87    1
    93    31    88    1
    94    33    89    1
    95    34    90    1
    96    34    91    1
    97    36    92    1
    98    41    93    1
    99    42    94    1
   100    42    95    1
   101    42    96    1
   102    43    97    1
   103    43    98    1
   104    43    99    1
   105    44   100    1
   106    45   101    1
   107    46   102    1
   108    49   103    1
   109    49   104    1
   110    50   105    1
   111    53   106    1
   112    53   107    1
   113    54   108    1
   114    55   109    1
   115    57   110    1
   116    58   111    1
   117    59   112    1
   118    61   113    1
   119    62   114    1
   120    63   115    1
   121    65   116    1
   122    66   117    1
@<TRIPOS>MOLECULE
123882
 117 122 0 0 0
SMALL
GASTEIGER

@<TRIPOS>ATOM
      1 S         -19.0246   -4.8199    2.3252 S.2     3  UNK3       -0.0993
      2 O         -12.8548   -7.7674   -5.7045 O.2     1  UNK1       -0.2755
      3 O         -14.2737  -11.1553    4.4286 O.2     4  LEU4       -0.2738
      4 O         -13.5878   -6.9416   -2.2126 O.2     1  UNK1       -0.2737
      5 O         -13.4740   -9.3651    0.8112 O.2     5  TRP5       -0.2738
      6 O         -10.6328   -9.4225   -1.5700 O.2     6  ASP6       -0.2738
      7 O         -17.2691   -7.5628    3.8117 O.2     3  UNK3       -0.2734
      8 O         -16.8920   -9.0890   -0.3132 O.2     2  ASP2       -0.2737
      9 OD1       -10.7399  -13.1568    1.6245 O.co2   6  ASP6       -0.5497
     10 OD2       -11.2397  -14.4563   -0.1932 O.co2   6  ASP6       -0.5497
     11 OD1       -16.7238   -7.1494   -4.9924 O.co2   2  ASP2       -0.5497
     12 OD2       -18.6675   -6.2027   -4.2657 O.co2   2  ASP2       -0.5497
     13 N         -14.3090   -9.2188   -6.7220 N.am    1  UNK1       -0.2984
     14 N         -16.5621   -9.7980   -8.5511 N.pl3   1  UNK1       -0.3269
     15 N         -12.7593  -10.0862   -2.1560 N.am    1  UNK1       -0.3020
     16 N         -13.9020   -9.1613    3.3676 N.am    5  TRP5       -0.3022
     17 N         -16.3372   -8.9962    2.3219 N.am    4  LEU4       -0.3022
     18 N         -11.5420  -10.5622    1.0563 N.am    6  ASP6       -0.3021
     19 N         -15.2557   -8.4555   -2.6066 N.am    2  ASP2       -0.3021
     20 N         -16.5762   -6.8931    0.2130 N.am    3  UNK3       -0.2984
     21 NE1        -8.1966   -8.3373    2.1764 N.ar    5  TRP5       -0.3604
     22 C         -14.9063  -10.5518   -6.8613 C.3     1  UNK1        0.0304
     23 C         -14.7462   -8.2208   -7.7046 C.3     1  UNK1        0.0304
     24 C         -15.4882  -10.7725   -8.2690 C.3     1  UNK1        0.0280
     25 C         -16.2275   -8.3990   -8.1047 C.3     1  UNK1        0.0280
     26 C         -13.5085   -8.8095   -5.6654 C.2     1  UNK1        0.2179
     27 C         -13.4039   -9.7671   -4.4939 C.3     1  UNK1        0.0510
     28 C         -12.9389   -9.0759   -3.2090 C.3     1  UNK1        0.1076
     29 CA        -16.1657  -10.1148    3.2698 C.3     4  LEU4        0.0997
     30 CB        -16.6549  -11.3954    2.5676 C.3     4  LEU4       -0.0236
     31 CA        -12.4863   -9.3881    3.0331 C.3     5  TRP5        0.1034
     32 C         -17.9132  -10.1477   -8.3540 C.ar    1  UNK1        0.0298
     33 CG        -16.7621  -12.6792    3.4125 C.3     4  LEU4       -0.0446
     34 CB        -11.7002   -8.0934    3.2672 C.3     5  TRP5        0.0013
     35 C         -14.6932  -10.2302    3.7416 C.2     4  LEU4        0.2340
     36 CA        -11.6911  -11.1976   -0.2515 C.3     6  ASP6        0.1045
     37 C         -13.9432   -8.0298   -2.6654 C.2     1  UNK1        0.2344
     38 CG        -10.2147   -8.2024    3.1167 C.ar    5  TRP5       -0.0201
     39 C         -12.5536   -9.7658    1.5334 C.2     5  TRP5        0.2343
     40 C         -11.6172  -10.1334   -1.3746 C.2     6  ASP6        0.2343
     41 CA        -16.3292   -7.5820   -2.1510 C.3     2  ASP2        0.1045
     42 CD2       -17.5969  -12.4926    4.6779 C.3     4  LEU4       -0.0626
     43 CD1       -17.3651  -13.7999    2.5568 C.3     4  LEU4       -0.0626
     44 C         -17.3817   -6.9054    1.4349 C.3     3  UNK3        0.1311
     45 C         -18.9357   -9.2010   -8.5660 C.ar    1  UNK1       -0.0407
     46 C         -18.3391  -11.4284   -7.9643 C.ar    1  UNK1       -0.0407
     47 CD2        -9.2244   -8.2601    4.1530 C.ar    5  TRP5        0.0029
     48 C         -16.9454   -7.8055    2.6466 C.2     3  UNK3        0.2390
     49 CB        -10.5951  -12.2201   -0.5192 C.3     6  ASP6        0.0138
     50 CD1        -9.5307   -8.2135    1.9177 C.ar    5  TRP5        0.0060
     51 CE2        -7.9736   -8.3293    3.5343 C.ar    5  TRP5        0.0467
     52 C         -16.6153   -7.9441   -0.6776 C.2     2  ASP2        0.2345
     53 CB        -17.6268   -7.8144   -2.9176 C.3     2  ASP2        0.0138
     54 C         -20.2883   -9.4924   -8.3491 C.ar    1  UNK1       -0.0600
     55 C         -19.6928  -11.7327   -7.7531 C.ar    1  UNK1       -0.0600
     56 C         -17.4873   -5.4722    1.9185 C.ar    3  UNK3        0.0189
     57 CE3        -9.2693   -8.2529    5.5631 C.ar    5  TRP5       -0.0523
     58 C         -20.6678  -10.7615   -7.9373 C.ar    1  UNK1       -0.0616
     59 CZ2        -6.7716   -8.3869    4.2504 C.ar    5  TRP5       -0.0378
     60 CG        -10.8858  -13.3961    0.3903 C.2     6  ASP6        0.0440
     61 CZ3        -8.0761   -8.3050    6.2956 C.ar    5  TRP5       -0.0611
     62 C         -16.4838   -4.5354    2.1016 C.ar    3  UNK3       -0.0493
     63 CH2        -6.8461   -8.3694    5.6457 C.ar    5  TRP5       -0.0598
     64 CG        -17.6651   -6.9675   -4.1757 C.2     2  ASP2        0.0440
     65 C         -16.9821   -3.2879    2.5769 C.ar    3  UNK3       -0.0544
     66 C         -18.3464   -3.3116    2.7537 C.ar    3  UNK3       -0.0240
     67 H         -13.6008  -10.3966   -1.6822 H       1  UNK1        0.1495
     68 H         -14.3742   -8.5652    2.6916 H       5  TRP5        0.1495
     69 H         -16.1667   -9.1905    1.3312 H       4  LEU4        0.1495
     70 H         -11.0985  -11.1803    1.7444 H       6  ASP6        0.1495
     71 H         -15.5020   -9.4124   -2.8049 H       2  ASP2        0.1495
     72 H         -16.4177   -5.9864   -0.2112 H       3  UNK3        0.1498
     73 HE1        -7.4797   -8.4166    1.4708 H       5  TRP5        0.1653
     74 H         -15.6955  -10.6458   -6.1070 H       1  UNK1        0.0480
     75 H         -14.1363  -11.3009   -6.6495 H       1  UNK1        0.0480
     76 H         -14.1043   -8.3429   -8.5858 H       1  UNK1        0.0480
     77 H         -14.5866   -7.2066   -7.3233 H       1  UNK1        0.0480
     78 H         -14.6958  -10.6156   -9.0134 H       1  UNK1        0.0479
     79 H         -15.7904  -11.8127   -8.4126 H       1  UNK1        0.0479
     80 H         -16.8412   -8.1342   -7.2389 H       1  UNK1        0.0479
     81 H         -16.4552   -7.7009   -8.9185 H       1  UNK1        0.0479
     82 H         -12.6798  -10.5428   -4.7742 H       1  UNK1        0.0381
     83 H         -14.3610  -10.2701   -4.3302 H       1  UNK1        0.0381
     84 H         -11.9904   -8.5573   -3.3902 H       1  UNK1        0.0599
     85 HA        -16.7697   -9.9050    4.1577 H       4  LEU4        0.0594
     86 HB1       -15.9952  -11.6010    1.7124 H       4  LEU4        0.0290
     87 HB2       -17.6444  -11.1875    2.1352 H       4  LEU4        0.0290
     88 HA        -12.0907  -10.2274    3.6152 H       5  TRP5        0.0598
     89 HG        -15.7581  -13.0045    3.7057 H       4  LEU4        0.0296
     90 HB1       -11.9229   -7.7241    4.2777 H       5  TRP5        0.0337
     91 HB2       -12.0612   -7.3101    2.5862 H       5  TRP5        0.0337
     92 HA        -12.6768  -11.6815   -0.2673 H       6  ASP6        0.0598
     93 HA        -16.0081   -6.5368   -2.2232 H       2  ASP2        0.0598
     94 HD21      -18.5917  -12.0994    4.4437 H       4  LEU4        0.0232
     95 HD22      -17.1108  -11.8049    5.3763 H       4  LEU4        0.0232
     96 HD23      -17.7253  -13.4463    5.2015 H       4  LEU4        0.0232
     97 HD11      -18.3884  -13.5584    2.2484 H       4  LEU4        0.0232
     98 HD12      -17.3941  -14.7428    3.1131 H       4  LEU4        0.0232
     99 HD13      -16.7690  -13.9645    1.6528 H       4  LEU4        0.0232
    100 H         -18.3728   -7.2787    1.1422 H       3  UNK3        0.0651
    101 H         -18.6910   -8.1909   -8.8843 H       1  UNK1        0.0636
    102 H         -17.6354  -12.2288   -7.7727 H       1  UNK1        0.0636
    103 HB1        -9.5980  -11.8193   -0.3032 H       6  ASP6        0.0348
    104 HB2       -10.6055  -12.5406   -1.5679 H       6  ASP6        0.0348
    105 HD1        -9.8873   -8.1795    0.8941 H       5  TRP5        0.0810
    106 HB1       -18.4897   -7.5419   -2.2948 H       2  ASP2        0.0348
    107 HB2       -17.7558   -8.8683   -3.1924 H       2  ASP2        0.0348
    108 H         -21.0319   -8.7121   -8.4831 H       1  UNK1        0.0618
    109 H         -19.9740  -12.7282   -7.4221 H       1  UNK1        0.0618
    110 HE3       -10.2230   -8.2099    6.0799 H       5  TRP5        0.0624
    111 H         -21.7124  -10.9859   -7.7473 H       1  UNK1        0.0618
    112 HZ2        -5.8152   -8.4465    3.7425 H       5  TRP5        0.0638
    113 HZ3        -8.1152   -8.3013    7.3814 H       5  TRP5        0.0618
    114 H         -15.4372   -4.7377    1.9014 H       3  UNK3        0.0626
    115 HH2        -5.9306   -8.4152    6.2294 H       5  TRP5        0.0618
    116 H         -16.3680   -2.4206    2.7832 H       3  UNK3        0.0623
    117 H         -18.9830   -2.5145    3.1105 H       3  UNK3        0.0693
@<TRIPOS>BOND
     1     1    56   ar
     2     1    66   ar
     3     2    26    2
     4     3    35    2
     5     4    37    2
     6     5    39    2
     7     6    40    2
     8     7    48    2
     9     8    52    2
    10     9    60   ar
    11    10    60   ar
    12    11    64   ar
    13    12    64   ar
    14    13    22    1
    15    13    23    1
    16    14    24    1
    17    14    25    1
    18    14    32    1
    19    15    28    1
    20    15    40   am
    21    16    35   am
    22    16    31    1
    23    17    48   am
    24    17    29    1
    25    18    39   am
    26    18    36    1
    27    19    37   am
    28    19    41    1
    29    20    52   am
    30    20    44    1
    31    21    50   ar
    32    21    51   ar
    33    22    24    1
    34    23    25    1
    35    26    27    1
    36    26    13   am
    37    28    37    1
    38    28    27    1
    39    29    35    1
    40    29    30    1
    41    30    33    1
    42    31    39    1
    43    31    34    1
    44    32    45   ar
    45    32    46   ar
    46    33    43    1
    47    33    42    1
    48    34    38    1
    49    36    40    1
    50    36    49    1
    51    38    47   ar
    52    38    50   ar
    53    41    52    1
    54    41    53    1
    55    44    48    1
    56    44    56    1
    57    45    54   ar
    58    46    55   ar
    59    47    57   ar
    60    47    51   ar
    61    49    60    1
    62    51    59   ar
    63    53    64    1
    64    54    58   ar
    65    55    58   ar
    66    56    62   ar
    67    57    61   ar
    68    59    63   ar
    69    61    63   ar
    70    62    65   ar
    71    65    66   ar
    72    15    67    1
    73    16    68    1
    74    17    69    1
    75    18    70    1
    76    19    71    1
    77    20    72    1
    78    21    73    1
    79    22    74    1
    80    22    75    1
    81    23    76    1
    82    23    77    1
    83    24    78    1
    84    24    79    1
    85    25    80    1
    86    25    81    1
    87    27    82    1
    88    27    83    1
    89    28    84    1
    90    29    85    1
    91    30    86    1
    92    30    87    1
    93    31    88    1
    94    33    89    1
    95    34    90    1
    96    34    91    1
    97    36    92    1
    98    41    93    1
    99    42    94    1
   100    42    95    1
   101    42    96    1
   102    43    97    1
   103    43    98    1
   104    43    99    1
   105    44   100    1
   106    45   101    1
   107    46   102    1
   108    49   103    1
   109    49   104    1
   110    50   105    1
   111    53   106    1
   112    53   107    1
   113    54   108    1
   114    55   109    1
   115    57   110    1
   116    58   111    1
   117    59   112    1
   118    61   113    1
   119    62   114    1
   120    63   115    1
   121    65   116    1
   122    66   117    1
@<TRIPOS>MOLECULE
123882
 117 122 0 0 0
SMALL
GASTEIGER

@<TRIPOS>ATOM
      1 S         -19.0277   -4.7868    2.3465 S.2     3  UNK3       -0.0993
      2 O         -11.3552  -10.7511   -4.9649 O.2     1  UNK1       -0.2755
      3 O         -14.3065  -11.1317    4.5304 O.2     4  LEU4       -0.2738
      4 O         -13.5854   -6.8929   -2.6845 O.2     1  UNK1       -0.2737
      5 O         -13.5320   -9.3154    0.9235 O.2     5  TRP5       -0.2738
      6 O         -10.8918   -9.2107   -1.3231 O.2     6  ASP6       -0.2738
      7 O         -17.3070   -7.5350    3.8716 O.2     3  UNK3       -0.2734
      8 O         -16.9378   -9.0783   -0.2116 O.2     2  ASP2       -0.2737
      9 OD1       -10.7531  -13.1171    1.6662 O.co2   6  ASP6       -0.5497
     10 OD2       -11.3271  -14.4392   -0.1111 O.co2   6  ASP6       -0.5497
     11 OD1       -16.4715   -7.8142   -4.9923 O.co2   2  ASP2       -0.5497
     12 OD2       -18.5402   -6.8960   -4.7094 O.co2   2  ASP2       -0.5497
     13 N         -13.0732  -11.4309   -6.3124 N.am    1  UNK1       -0.2984
     14 N         -13.3492  -11.8183   -9.1740 N.pl3   1  UNK1       -0.3269
     15 N         -12.7688  -10.1987   -2.2187 N.am    1  UNK1       -0.3020
     16 N         -13.9199   -9.1350    3.4788 N.am    5  TRP5       -0.3022
     17 N         -16.3365   -8.9640    2.4017 N.am    4  LEU4       -0.3022
     18 N         -11.6251  -10.5632    1.1309 N.am    6  ASP6       -0.3021
     19 N         -15.1574   -8.5408   -2.3924 N.am    2  ASP2       -0.3021
     20 N         -16.5663   -6.8860    0.2749 N.am    3  UNK3       -0.2984
     21 NE1        -8.2229   -8.3623    2.2064 N.ar    5  TRP5       -0.3604
     22 C         -14.3362  -11.0951   -6.9923 C.3     1  UNK1        0.0304
     23 C         -12.2227  -12.4065   -6.9972 C.3     1  UNK1        0.0304
     24 C         -14.5393  -11.8982   -8.2930 C.3     1  UNK1        0.0280
     25 C         -12.0470  -12.0437   -8.4805 C.3     1  UNK1        0.0280
     26 C         -12.5439  -10.6742   -5.2719 C.2     1  UNK1        0.2179
     27 C         -13.5220   -9.7700   -4.5441 C.3     1  UNK1        0.0510
     28 C         -12.9417   -9.1777   -3.2561 C.3     1  UNK1        0.1076
     29 CA        -16.1816  -10.0895    3.3447 C.3     4  LEU4        0.0997
     30 CB        -16.6536  -11.3647    2.6196 C.3     4  LEU4       -0.0236
     31 CA        -12.5104   -9.3749    3.1240 C.3     5  TRP5        0.1034
     32 C         -13.2995  -10.9144  -10.2430 C.ar    1  UNK1        0.0298
     33 CG        -16.7632  -12.6614    3.4437 C.3     4  LEU4       -0.0446
     34 CB        -11.7112   -8.0850    3.3393 C.3     5  TRP5        0.0013
     35 C         -14.7171  -10.2047    3.8413 C.2     4  LEU4        0.2340
     36 CA        -11.8029  -11.1782   -0.1834 C.3     6  ASP6        0.1045
     37 C         -13.8992   -8.0834   -2.7301 C.2     1  UNK1        0.2344
     38 CG        -10.2286   -8.2053    3.1697 C.ar    5  TRP5       -0.0201
     39 C         -12.6093   -9.7459    1.6264 C.2     5  TRP5        0.2343
     40 C         -11.7573  -10.0844   -1.2777 C.2     6  ASP6        0.2343
     41 CA        -16.2572   -7.6492   -2.0649 C.3     2  ASP2        0.1045
     42 CD2       -17.6105  -12.4969    4.7035 C.3     4  LEU4       -0.0626
     43 CD1       -17.3535  -13.7719    2.5657 C.3     4  LEU4       -0.0626
     44 C         -17.3814   -6.8826    1.4911 C.3     3  UNK3        0.1311
     45 C         -12.2227  -10.9470  -11.1512 C.ar    1  UNK1       -0.0407
     46 C         -14.2913   -9.9544  -10.4923 C.ar    1  UNK1       -0.0407
     47 CD2        -9.2260   -8.2612    4.1937 C.ar    5  TRP5        0.0029
     48 C         -16.9608   -7.7785    2.7133 C.2     3  UNK3        0.2390
     49 CB        -10.7168  -12.1989   -0.4926 C.3     6  ASP6        0.0138
     50 CD1        -9.5595   -8.2297    1.9625 C.ar    5  TRP5        0.0060
     51 CE2        -7.9838   -8.3428    3.5600 C.ar    5  TRP5        0.0467
     52 C         -16.6153   -7.9516   -0.5960 C.2     2  ASP2        0.2345
     53 CB        -17.5178   -7.9355   -2.8744 C.3     2  ASP2        0.0138
     54 C         -12.1224  -10.0541  -12.2246 C.ar    1  UNK1       -0.0600
     55 C         -14.2030   -9.0607  -11.5687 C.ar    1  UNK1       -0.0600
     56 C         -17.4873   -5.4459    1.9620 C.ar    3  UNK3        0.0189
     57 CE3        -9.2541   -8.2430    5.6042 C.ar    5  TRP5       -0.0523
     58 C         -13.1155   -9.1067  -12.4324 C.ar    1  UNK1       -0.0616
     59 CZ2        -6.7733   -8.4019    4.2619 C.ar    5  TRP5       -0.0378
     60 CG        -10.9537  -13.3693    0.4415 C.2     6  ASP6        0.0440
     61 CZ3        -8.0520   -8.2960    6.3220 C.ar    5  TRP5       -0.0611
     62 C         -16.4838   -4.5104    2.1499 C.ar    3  UNK3       -0.0493
     63 CH2        -6.8302   -8.3727    5.6578 C.ar    5  TRP5       -0.0598
     64 CG        -17.4908   -7.4878   -4.3249 C.2     2  ASP2        0.0440
     65 C         -16.9843   -3.2590    2.6128 C.ar    3  UNK3       -0.0544
     66 C         -18.3504   -3.2786    2.7759 C.ar    3  UNK3       -0.0240
     67 H         -13.5610  -10.7703   -1.9616 H       1  UNK1        0.1495
     68 H         -14.3913   -8.5356    2.8052 H       5  TRP5        0.1495
     69 H         -16.1488   -9.1589    1.4146 H       4  LEU4        0.1495
     70 H         -11.1663  -11.1881    1.8031 H       6  ASP6        0.1495
     71 H         -15.3512   -9.5303   -2.3796 H       2  ASP2        0.1495
     72 H         -16.3876   -5.9872   -0.1565 H       3  UNK3        0.1498
     73 HE1        -7.5167   -8.4537    1.4902 H       5  TRP5        0.1653
     74 H         -14.3226  -10.0229   -7.2172 H       1  UNK1        0.0480
     75 H         -15.1619  -11.2897   -6.3000 H       1  UNK1        0.0480
     76 H         -12.7114  -13.3836   -6.8991 H       1  UNK1        0.0480
     77 H         -11.2434  -12.4953   -6.5167 H       1  UNK1        0.0480
     78 H         -14.6825  -12.9565   -8.0363 H       1  UNK1        0.0479
     79 H         -15.4686  -11.6120   -8.7950 H       1  UNK1        0.0479
     80 H         -11.4315  -11.1351   -8.5242 H       1  UNK1        0.0479
     81 H         -11.5045  -12.8522   -8.9840 H       1  UNK1        0.0479
     82 H         -14.4247  -10.3499   -4.3187 H       1  UNK1        0.0381
     83 H         -13.7957   -8.9565   -5.2258 H       1  UNK1        0.0381
     84 H         -11.9749   -8.7013   -3.4578 H       1  UNK1        0.0599
     85 HA        -16.8030   -9.8882    4.2223 H       4  LEU4        0.0594
     86 HB1       -15.9822  -11.5548    1.7699 H       4  LEU4        0.0290
     87 HB2       -17.6388  -11.1569    2.1771 H       4  LEU4        0.0290
     88 HA        -12.1126  -10.2181    3.6985 H       5  TRP5        0.0598
     89 HG        -15.7604  -12.9868    3.7412 H       4  LEU4        0.0296
     90 HB1       -11.9186   -7.7070    4.3496 H       5  TRP5        0.0337
     91 HB2       -12.0750   -7.3037    2.6574 H       5  TRP5        0.0337
     92 HA        -12.7924  -11.6542   -0.1831 H       6  ASP6        0.0598
     93 HA        -15.9498   -6.6049   -2.1813 H       2  ASP2        0.0598
     94 HD21      -18.6052  -12.1060    4.4653 H       4  LEU4        0.0232
     95 HD22      -17.1349  -11.8159    5.4154 H       4  LEU4        0.0232
     96 HD23      -17.7384  -13.4584    5.2128 H       4  LEU4        0.0232
     97 HD11      -18.3751  -13.5302    2.2519 H       4  LEU4        0.0232
     98 HD12      -17.3833  -14.7233    3.1072 H       4  LEU4        0.0232
     99 HD13      -16.7490  -13.9202    1.6644 H       4  LEU4        0.0232
    100 H         -18.3720   -7.2534    1.1937 H       3  UNK3        0.0651
    101 H         -11.4350  -11.6863  -11.0336 H       1  UNK1        0.0636
    102 H         -15.1489   -9.8427   -9.8364 H       1  UNK1        0.0636
    103 HB1        -9.7135  -11.7896   -0.3255 H       6  ASP6        0.0348
    104 HB2       -10.7709  -12.5274   -1.5372 H       6  ASP6        0.0348
    105 HD1        -9.9287   -8.2010    0.9433 H       5  TRP5        0.0810
    106 HB1       -18.3699   -7.4409   -2.3866 H       2  ASP2        0.0348
    107 HB2       -17.7446   -9.0094   -2.8719 H       2  ASP2        0.0348
    108 H         -11.2652  -10.1036  -12.8893 H       1  UNK1        0.0618
    109 H         -14.9853   -8.3201  -11.7132 H       1  UNK1        0.0618
    110 HE3       -10.2013   -8.1911    6.1323 H       5  TRP5        0.0624
    111 H         -13.0424   -8.4048  -13.2572 H       1  UNK1        0.0618
    112 HZ2        -5.8241   -8.4724    3.7419 H       5  TRP5        0.0638
    113 HZ3        -8.0775   -8.2841    7.4081 H       5  TRP5        0.0618
    114 H         -15.4353   -4.7168    1.9642 H       3  UNK3        0.0626
    115 HH2        -5.9076   -8.4192    6.2301 H       5  TRP5        0.0618
    116 H         -16.3703   -2.3925    2.8230 H       3  UNK3        0.0623
    117 H         -18.9887   -2.4791    3.1242 H       3  UNK3        0.0693
@<TRIPOS>BOND
     1     1    56   ar
     2     1    66   ar
     3     2    26    2
     4     3    35    2
     5     4    37    2
     6     5    39    2
     7     6    40    2
     8     7    48    2
     9     8    52    2
    10     9    60   ar
    11    10    60   ar
    12    11    64   ar
    13    12    64   ar
    14    13    22    1
    15    13    23    1
    16    14    24    1
    17    14    25    1
    18    14    32    1
    19    15    28    1
    20    15    40   am
    21    16    35   am
    22    16    31    1
    23    17    48   am
    24    17    29    1
    25    18    39   am
    26    18    36    1
    27    19    37   am
    28    19    41    1
    29    20    52   am
    30    20    44    1
    31    21    50   ar
    32    21    51   ar
    33    22    24    1
    34    23    25    1
    35    26    27    1
    36    26    13   am
    37    28    37    1
    38    28    27    1
    39    29    35    1
    40    29    30    1
    41    30    33    1
    42    31    39    1
    43    31    34    1
    44    32    45   ar
    45    32    46   ar
    46    33    43    1
    47    33    42    1
    48    34    38    1
    49    36    40    1
    50    36    49    1
    51    38    47   ar
    52    38    50   ar
    53    41    52    1
    54    41    53    1
    55    44    48    1
    56    44    56    1
    57    45    54   ar
    58    46    55   ar
    59    47    57   ar
    60    47    51   ar
    61    49    60    1
    62    51    59   ar
    63    53    64    1
    64    54    58   ar
    65    55    58   ar
    66    56    62   ar
    67    57    61   ar
    68    59    63   ar
    69    61    63   ar
    70    62    65   ar
    71    65    66   ar
    72    15    67    1
    73    16    68    1
    74    17    69    1
    75    18    70    1
    76    19    71    1
    77    20    72    1
    78    21    73    1
    79    22    74    1
    80    22    75    1
    81    23    76    1
    82    23    77    1
    83    24    78    1
    84    24    79    1
    85    25    80    1
    86    25    81    1
    87    27    82    1
    88    27    83    1
    89    28    84    1
    90    29    85    1
    91    30    86    1
    92    30    87    1
    93    31    88    1
    94    33    89    1
    95    34    90    1
    96    34    91    1
    97    36    92    1
    98    41    93    1
    99    42    94    1
   100    42    95    1
   101    42    96    1
   102    43    97    1
   103    43    98    1
   104    43    99    1
   105    44   100    1
   106    45   101    1
   107    46   102    1
   108    49   103    1
   109    49   104    1
   110    50   105    1
   111    53   106    1
   112    53   107    1
   113    54   108    1
   114    55   109    1
   115    57   110    1
   116    58   111    1
   117    59   112    1
   118    61   113    1
   119    62   114    1
   120    63   115    1
   121    65   116    1
   122    66   117    1
@<TRIPOS>MOLECULE
123882
 117 122 0 0 0
SMALL
GASTEIGER

@<TRIPOS>ATOM
      1 S         -19.0193   -4.7763    2.3951 S.2     3  UNK3       -0.0993
      2 O         -11.3668  -10.6798   -4.9754 O.2     1  UNK1       -0.2755
      3 O         -14.3027  -11.1343    4.5211 O.2     4  LEU4       -0.2738
      4 O         -13.6330   -6.8841   -2.6354 O.2     1  UNK1       -0.2737
      5 O         -13.5326   -9.3025    0.9123 O.2     5  TRP5       -0.2738
      6 O         -10.8780   -9.2392   -1.3628 O.2     6  ASP6       -0.2738
      7 O         -17.2847   -7.5348    3.8949 O.2     3  UNK3       -0.2734
      8 O         -17.0972   -9.0632   -0.2187 O.2     2  ASP2       -0.2737
      9 OD1       -10.7710  -13.0855    1.6718 O.co2   6  ASP6       -0.5497
     10 OD2       -11.2546  -14.4629   -0.0898 O.co2   6  ASP6       -0.5497
     11 OD1       -16.7109   -8.5152   -5.0437 O.co2   2  ASP2       -0.5497
     12 OD2       -17.5882   -6.4298   -4.6960 O.co2   2  ASP2       -0.5497
     13 N         -13.0856  -11.4039   -6.2984 N.am    1  UNK1       -0.2984
     14 N         -13.3559  -11.8053   -9.1567 N.pl3   1  UNK1       -0.3269
     15 N         -12.8035  -10.1801   -2.2089 N.am    1  UNK1       -0.3020
     16 N         -13.9214   -9.1370    3.4671 N.am    5  TRP5       -0.3022
     17 N         -16.3483   -8.9665    2.4035 N.am    4  LEU4       -0.3022
     18 N         -11.6303  -10.5582    1.1154 N.am    6  ASP6       -0.3021
     19 N         -15.1935   -8.5440   -2.3604 N.am    2  ASP2       -0.3021
     20 N         -16.6023   -6.9033    0.2910 N.am    3  UNK3       -0.2984
     21 NE1        -8.2239   -8.3634    2.1995 N.ar    5  TRP5       -0.3604
     22 C         -14.3550  -11.0854   -6.9758 C.3     1  UNK1        0.0304
     23 C         -12.2290  -12.3776   -6.9766 C.3     1  UNK1        0.0304
     24 C         -14.5481  -11.8902   -8.2772 C.3     1  UNK1        0.0280
     25 C         -12.0538  -12.0222   -8.4610 C.3     1  UNK1        0.0280
     26 C         -12.5608  -10.6311   -5.2682 C.2     1  UNK1        0.2179
     27 C         -13.5495   -9.7441   -4.5346 C.3     1  UNK1        0.0510
     28 C         -12.9760   -9.1556   -3.2423 C.3     1  UNK1        0.1076
     29 CA        -16.1832  -10.0938    3.3427 C.3     4  LEU4        0.0997
     30 CB        -16.6553  -11.3687    2.6176 C.3     4  LEU4       -0.0236
     31 CA        -12.5112   -9.3748    3.1125 C.3     5  TRP5        0.1034
     32 C         -13.3087  -10.9055  -10.2290 C.ar    1  UNK1        0.0298
     33 CG        -16.7600  -12.6666    3.4406 C.3     4  LEU4       -0.0446
     34 CB        -11.7116   -8.0864    3.3357 C.3     5  TRP5        0.0013
     35 C         -14.7162  -10.2068    3.8321 C.2     4  LEU4        0.2340
     36 CA        -11.8137  -11.1784   -0.1954 C.3     6  ASP6        0.1045
     37 C         -13.9391   -8.0744   -2.7007 C.2     1  UNK1        0.2344
     38 CG        -10.2290   -8.2053    3.1646 C.ar    5  TRP5       -0.0201
     39 C         -12.6109   -9.7384    1.6132 C.2     5  TRP5        0.2343
     40 C         -11.7655  -10.0899   -1.2943 C.2     6  ASP6        0.2343
     41 CA        -16.3056   -7.6588   -2.0510 C.3     2  ASP2        0.1045
     42 CD2       -17.6032  -12.5054    4.7036 C.3     4  LEU4       -0.0626
     43 CD1       -17.3520  -13.7765    2.5630 C.3     4  LEU4       -0.0626
     44 C         -17.3988   -6.8807    1.5179 C.3     3  UNK3        0.1311
     45 C         -12.2307  -10.9374  -11.1361 C.ar    1  UNK1       -0.0407
     46 C         -14.3036   -9.9502  -10.4826 C.ar    1  UNK1       -0.0407
     47 CD2        -9.2248   -8.2574    4.1877 C.ar    5  TRP5        0.0029
     48 C         -16.9613   -7.7785    2.7304 C.2     3  UNK3        0.2390
     49 CB        -10.7328  -12.2052   -0.5042 C.3     6  ASP6        0.0138
     50 CD1        -9.5611   -8.2328    1.9568 C.ar    5  TRP5        0.0060
     51 CE2        -7.9831   -8.3398    3.5528 C.ar    5  TRP5        0.0467
     52 C         -16.7115   -7.9543   -0.5939 C.2     2  ASP2        0.2345
     53 CB        -17.5252   -7.9526   -2.9156 C.3     2  ASP2        0.0138
     54 C         -12.1322  -10.0479  -12.2124 C.ar    1  UNK1       -0.0600
     55 C         -14.2173   -9.0601  -11.5622 C.ar    1  UNK1       -0.0600
     56 C         -17.4880   -5.4423    1.9843 C.ar    3  UNK3        0.0189
     57 CE3        -9.2510   -8.2361    5.5981 C.ar    5  TRP5       -0.0523
     58 C         -13.1286   -9.1050  -12.4247 C.ar    1  UNK1       -0.0616
     59 CZ2        -6.7717   -8.3962    4.2530 C.ar    5  TRP5       -0.0378
     60 CG        -10.9398  -13.3671    0.4483 C.2     6  ASP6        0.0440
     61 CZ3        -8.0479   -8.2866    6.3146 C.ar    5  TRP5       -0.0611
     62 C         -16.4786   -4.5094    2.1501 C.ar    3  UNK3       -0.0493
     63 CH2        -6.8271   -8.3638    5.6489 C.ar    5  TRP5       -0.0598
     64 CG        -17.2287   -7.5918   -4.3544 C.2     2  ASP2        0.0440
     65 C         -16.9669   -3.2538    2.6155 C.ar    3  UNK3       -0.0544
     66 C         -18.3299   -3.2681    2.8037 C.ar    3  UNK3       -0.0240
     67 H         -13.6252  -10.6776   -1.8934 H       1  UNK1        0.1495
     68 H         -14.3939   -8.5398    2.7928 H       5  TRP5        0.1495
     69 H         -16.1813   -9.1593    1.4130 H       4  LEU4        0.1495
     70 H         -11.1744  -11.1862    1.7874 H       6  ASP6        0.1495
     71 H         -15.4325   -9.5087   -2.5411 H       2  ASP2        0.1495
     72 H         -16.3606   -6.0108   -0.1230 H       3  UNK3        0.1498
     73 HE1        -7.5187   -8.4576    1.4828 H       5  TRP5        0.1653
     74 H         -14.3573  -10.0132   -7.1997 H       1  UNK1        0.0480
     75 H         -15.1767  -11.2933   -6.2828 H       1  UNK1        0.0480
     76 H         -12.7119  -13.3573   -6.8736 H       1  UNK1        0.0480
     77 H         -11.2499  -12.4578   -6.4941 H       1  UNK1        0.0480
     78 H         -14.6849  -12.9492   -8.0200 H       1  UNK1        0.0479
     79 H         -15.4778  -11.6107   -8.7823 H       1  UNK1        0.0479
     80 H         -11.4412  -11.1119   -8.5092 H       1  UNK1        0.0479
     81 H         -11.5079  -12.8313   -8.9599 H       1  UNK1        0.0479
     82 H         -14.4430  -10.3391   -4.3143 H       1  UNK1        0.0381
     83 H         -13.8332   -8.9291   -5.2104 H       1  UNK1        0.0381
     84 H         -12.0130   -8.6703   -3.4395 H       1  UNK1        0.0599
     85 HA        -16.8011   -9.8966    4.2240 H       4  LEU4        0.0594
     86 HB1       -15.9865  -11.5563    1.7653 H       4  LEU4        0.0290
     87 HB2       -17.6425  -11.1621    2.1792 H       4  LEU4        0.0290
     88 HA        -12.1137  -10.2211    3.6827 H       5  TRP5        0.0598
     89 HG        -15.7557  -12.9909    3.7341 H       4  LEU4        0.0296
     90 HB1       -11.9184   -7.7156    4.3488 H       5  TRP5        0.0337
     91 HB2       -12.0758   -7.3004    2.6595 H       5  TRP5        0.0337
     92 HA        -12.8038  -11.6528   -0.1905 H       6  ASP6        0.0598
     93 HA        -15.9975   -6.6123   -2.1559 H       2  ASP2        0.0598
     94 HD21      -18.5991  -12.1150    4.4696 H       4  LEU4        0.0232
     95 HD22      -17.1256  -11.8255    5.4153 H       4  LEU4        0.0232
     96 HD23      -17.7284  -13.4680    5.2114 H       4  LEU4        0.0232
     97 HD11      -18.3749  -13.5353    2.2526 H       4  LEU4        0.0232
     98 HD12      -17.3792  -14.7287    3.1031 H       4  LEU4        0.0232
     99 HD13      -16.7502  -13.9228    1.6595 H       4  LEU4        0.0232
    100 H         -18.3977   -7.2455    1.2404 H       3  UNK3        0.0651
    101 H         -11.4405  -11.6734  -11.0147 H       1  UNK1        0.0636
    102 H         -15.1618   -9.8398   -9.8270 H       1  UNK1        0.0636
    103 HB1        -9.7275  -11.7911   -0.3626 H       6  ASP6        0.0348
    104 HB2       -10.8052  -12.5473   -1.5436 H       6  ASP6        0.0348
    105 HD1        -9.9312   -8.2087    0.9377 H       5  TRP5        0.0810
    106 HB1       -18.3876   -7.3699   -2.5618 H       2  ASP2        0.0348
    107 HB2       -17.8192   -9.0082   -2.8562 H       2  ASP2        0.0348
    108 H         -11.2739  -10.0967  -12.8757 H       1  UNK1        0.0618
    109 H         -15.0021   -8.3230  -11.7101 H       1  UNK1        0.0618
    110 HE3       -10.1975   -8.1840    6.1275 H       5  TRP5        0.0624
    111 H         -13.0570   -8.4057  -13.2518 H       1  UNK1        0.0618
    112 HZ2        -5.8231   -8.4671    3.7322 H       5  TRP5        0.0638
    113 HZ3        -8.0720   -8.2720    7.4007 H       5  TRP5        0.0618
    114 H         -15.4340   -4.7192    1.9469 H       3  UNK3        0.0626
    115 HH2        -5.9037   -8.4082    6.2201 H       5  TRP5        0.0618
    116 H         -16.3468   -2.3879    2.8093 H       3  UNK3        0.0623
    117 H         -18.9592   -2.4645    3.1589 H       3  UNK3        0.0693
@<TRIPOS>BOND
     1     1    56   ar
     2     1    66   ar
     3     2    26    2
     4     3    35    2
     5     4    37    2
     6     5    39    2
     7     6    40    2
     8     7    48    2
     9     8    52    2
    10     9    60   ar
    11    10    60   ar
    12    11    64   ar
    13    12    64   ar
    14    13    22    1
    15    13    23    1
    16    14    24    1
    17    14    25    1
    18    14    32    1
    19    15    28    1
    20    15    40   am
    21    16    35   am
    22    16    31    1
    23    17    48   am
    24    17    29    1
    25    18    39   am
    26    18    36    1
    27    19    37   am
    28    19    41    1
    29    20    52   am
    30    20    44    1
    31    21    50   ar
    32    21    51   ar
    33    22    24    1
    34    23    25    1
    35    26    27    1
    36    26    13   am
    37    28    37    1
    38    28    27    1
    39    29    35    1
    40    29    30    1
    41    30    33    1
    42    31    39    1
    43    31    34    1
    44    32    45   ar
    45    32    46   ar
    46    33    43    1
    47    33    42    1
    48    34    38    1
    49    36    40    1
    50    36    49    1
    51    38    47   ar
    52    38    50   ar
    53    41    52    1
    54    41    53    1
    55    44    48    1
    56    44    56    1
    57    45    54   ar
    58    46    55   ar
    59    47    57   ar
    60    47    51   ar
    61    49    60    1
    62    51    59   ar
    63    53    64    1
    64    54    58   ar
    65    55    58   ar
    66    56    62   ar
    67    57    61   ar
    68    59    63   ar
    69    61    63   ar
    70    62    65   ar
    71    65    66   ar
    72    15    67    1
    73    16    68    1
    74    17    69    1
    75    18    70    1
    76    19    71    1
    77    20    72    1
    78    21    73    1
    79    22    74    1
    80    22    75    1
    81    23    76    1
    82    23    77    1
    83    24    78    1
    84    24    79    1
    85    25    80    1
    86    25    81    1
    87    27    82    1
    88    27    83    1
    89    28    84    1
    90    29    85    1
    91    30    86    1
    92    30    87    1
    93    31    88    1
    94    33    89    1
    95    34    90    1
    96    34    91    1
    97    36    92    1
    98    41    93    1
    99    42    94    1
   100    42    95    1
   101    42    96    1
   102    43    97    1
   103    43    98    1
   104    43    99    1
   105    44   100    1
   106    45   101    1
   107    46   102    1
   108    49   103    1
   109    49   104    1
   110    50   105    1
   111    53   106    1
   112    53   107    1
   113    54   108    1
   114    55   109    1
   115    57   110    1
   116    58   111    1
   117    59   112    1
   118    61   113    1
   119    62   114    1
   120    63   115    1
   121    65   116    1
   122    66   117    1
@<TRIPOS>MOLECULE
123882
 117 122 0 0 0
SMALL
GASTEIGER

@<TRIPOS>ATOM
      1 S         -19.0365   -4.8599    2.3882 S.2     3  UNK3       -0.0993
      2 O         -12.9529   -7.7663   -5.7023 O.2     1  UNK1       -0.2755
      3 O         -14.2650  -11.1763    4.4120 O.2     4  LEU4       -0.2738
      4 O         -13.5479   -6.9566   -2.2738 O.2     1  UNK1       -0.2737
      5 O         -13.4664   -9.3381    0.8179 O.2     5  TRP5       -0.2738
      6 O         -10.6773   -9.4053   -1.5605 O.2     6  ASP6       -0.2738
      7 O         -17.2528   -7.5639    3.8164 O.2     3  UNK3       -0.2734
      8 O         -16.7246   -9.0809   -0.2996 O.2     2  ASP2       -0.2737
      9 OD1       -10.7682  -13.1696    1.6059 O.co2   6  ASP6       -0.5497
     10 OD2       -11.2802  -14.4619   -0.2136 O.co2   6  ASP6       -0.5497
     11 OD1       -17.8010   -5.5786   -3.6786 O.co2   2  ASP2       -0.5497
     12 OD2       -17.7648   -7.3226   -5.1576 O.co2   2  ASP2       -0.5497
     13 N         -14.3447   -9.2506   -6.7510 N.am    1  UNK1       -0.2984
     14 N         -16.5632   -9.8443   -8.6086 N.pl3   1  UNK1       -0.3269
     15 N         -12.7766  -10.1192   -2.1852 N.am    1  UNK1       -0.3020
     16 N         -13.8936   -9.1672    3.3800 N.am    5  TRP5       -0.3022
     17 N         -16.3248   -8.9959    2.3268 N.am    4  LEU4       -0.3022
     18 N         -11.5525  -10.5657    1.0538 N.am    6  ASP6       -0.3021
     19 N         -15.2572   -8.4280   -2.6711 N.am    2  ASP2       -0.3021
     20 N         -16.5658   -6.8594    0.2151 N.am    3  UNK3       -0.2984
     21 NE1        -8.1924   -8.3417    2.1782 N.ar    5  TRP5       -0.3604
     22 C         -14.9284  -10.5909   -6.8950 C.3     1  UNK1        0.0304
     23 C         -14.7493   -8.2700   -7.7658 C.3     1  UNK1        0.0304
     24 C         -15.4970  -10.8208   -8.3071 C.3     1  UNK1        0.0280
     25 C         -16.2256   -8.4416   -8.1833 C.3     1  UNK1        0.0280
     26 C         -13.5620   -8.8345   -5.6850 C.2     1  UNK1        0.2179
     27 C         -13.4383   -9.8010   -4.5219 C.3     1  UNK1        0.0510
     28 C         -12.9506   -9.1149   -3.2426 C.3     1  UNK1        0.1076
     29 CA        -16.1579  -10.1178    3.2713 C.3     4  LEU4        0.0997
     30 CB        -16.6563  -11.3932    2.5655 C.3     4  LEU4       -0.0236
     31 CA        -12.4793   -9.3915    3.0396 C.3     5  TRP5        0.1034
     32 C         -17.9171  -10.1848   -8.4103 C.ar    1  UNK1        0.0298
     33 CG        -16.7644  -12.6819    3.4031 C.3     4  LEU4       -0.0446
     34 CB        -11.6928   -8.0987    3.2821 C.3     5  TRP5        0.0013
     35 C         -14.6849  -10.2402    3.7394 C.2     4  LEU4        0.2340
     36 CA        -11.7202  -11.1969   -0.2531 C.3     6  ASP6        0.1045
     37 C         -13.9301   -8.0410   -2.7106 C.2     1  UNK1        0.2344
     38 CG        -10.2078   -8.2069    3.1258 C.ar    5  TRP5       -0.0201
     39 C         -12.5510   -9.7568    1.5370 C.2     5  TRP5        0.2343
     40 C         -11.6500  -10.1342   -1.3777 C.2     6  ASP6        0.2343
     41 CA        -16.2931   -7.5440   -2.1421 C.3     2  ASP2        0.1045
     42 CD2       -17.5923  -12.5004    4.6735 C.3     4  LEU4       -0.0626
     43 CD1       -17.3756  -13.7952    2.5433 C.3     4  LEU4       -0.0626
     44 C         -17.3693   -6.9029    1.4381 C.3     3  UNK3        0.1311
     45 C         -18.9348   -9.2350   -8.6311 C.ar    1  UNK1       -0.0407
     46 C         -18.3500  -11.4600   -8.0101 C.ar    1  UNK1       -0.0407
     47 CD2        -9.2138   -8.2597    4.1589 C.ar    5  TRP5        0.0029
     48 C         -16.9287   -7.8035    2.6504 C.2     3  UNK3        0.2390
     49 CB        -10.6342  -12.2261   -0.5354 C.3     6  ASP6        0.0138
     50 CD1        -9.5276   -8.2206    1.9240 C.ar    5  TRP5        0.0060
     51 CE2        -7.9651   -8.3286    3.5349 C.ar    5  TRP5        0.0467
     52 C         -16.5271   -7.9199   -0.6640 C.2     2  ASP2        0.2345
     53 CB        -17.6231   -7.7649   -2.8527 C.3     2  ASP2        0.0138
     54 C         -20.2891   -9.5178   -8.4128 C.ar    1  UNK1       -0.0600
     55 C         -19.7054  -11.7554   -7.7967 C.ar    1  UNK1       -0.0600
     56 C         -17.4971   -5.4741    1.9337 C.ar    3  UNK3        0.0189
     57 CE3        -9.2533   -8.2478    5.5695 C.ar    5  TRP5       -0.0523
     58 C         -20.6754  -10.7810   -7.9899 C.ar    1  UNK1       -0.0616
     59 CZ2        -6.7603   -8.3822    4.2473 C.ar    5  TRP5       -0.0378
     60 CG        -10.9215  -13.4044    0.3720 C.2     6  ASP6        0.0440
     61 CZ3        -8.0567   -8.2955    6.2971 C.ar    5  TRP5       -0.0611
     62 C         -16.5113   -4.5136    2.0889 C.ar    3  UNK3       -0.0493
     63 CH2        -6.8291   -8.3604    5.6429 C.ar    5  TRP5       -0.0598
     64 CG        -17.7165   -6.7955   -4.0139 C.2     2  ASP2        0.0440
     65 C         -17.0245   -3.2790    2.5810 C.ar    3  UNK3       -0.0544
     66 C         -18.3818   -3.3361    2.7992 C.ar    3  UNK3       -0.0240
     67 H         -13.6186  -10.4564   -1.7325 H       1  UNK1        0.1495
     68 H         -14.3661   -8.5590    2.7150 H       5  TRP5        0.1495
     69 H         -16.1306   -9.1825    1.3386 H       4  LEU4        0.1495
     70 H         -11.1142  -11.1913    1.7384 H       6  ASP6        0.1495
     71 H         -15.4955   -9.4072   -2.7242 H       2  ASP2        0.1495
     72 H         -16.5232   -5.9544   -0.2434 H       3  UNK3        0.1498
     73 HE1        -7.4749   -8.4195    1.4672 H       5  TRP5        0.1653
     74 H         -15.7223  -10.6904   -6.1464 H       1  UNK1        0.0480
     75 H         -14.1536  -11.3327   -6.6758 H       1  UNK1        0.0480
     76 H         -14.0926   -8.4182   -8.6318 H       1  UNK1        0.0480
     77 H         -14.5865   -7.2493   -7.4042 H       1  UNK1        0.0480
     78 H         -14.6958  -10.6729   -9.0439 H       1  UNK1        0.0479
     79 H         -15.8012  -11.8609   -8.4464 H       1  UNK1        0.0479
     80 H         -16.8384   -8.1539   -7.3241 H       1  UNK1        0.0479
     81 H         -16.4386   -7.7551   -9.0108 H       1  UNK1        0.0479
     82 H         -12.7205  -10.5772   -4.8160 H       1  UNK1        0.0381
     83 H         -14.3964  -10.2987   -4.3438 H       1  UNK1        0.0381
     84 H         -11.9944   -8.6152   -3.4375 H       1  UNK1        0.0599
     85 HA        -16.7591   -9.9079    4.1612 H       4  LEU4        0.0594
     86 HB1       -16.0022  -11.5969    1.7057 H       4  LEU4        0.0290
     87 HB2       -17.6472  -11.1789    2.1394 H       4  LEU4        0.0290
     88 HA        -12.0821  -10.2354    3.6138 H       5  TRP5        0.0598
     89 HG        -15.7603  -13.0130    3.6893 H       4  LEU4        0.0296
     90 HB1       -11.9127   -7.7382    4.2963 H       5  TRP5        0.0337
     91 HB2       -12.0558   -7.3099    2.6089 H       5  TRP5        0.0337
     92 HA        -12.7097  -11.6735   -0.2579 H       6  ASP6        0.0598
     93 HA        -15.9445   -6.5077   -2.2051 H       2  ASP2        0.0598
     94 HD21      -18.5881  -12.1055    4.4462 H       4  LEU4        0.0232
     95 HD22      -17.1022  -11.8163    5.3725 H       4  LEU4        0.0232
     96 HD23      -17.7188  -13.4565    5.1933 H       4  LEU4        0.0232
     97 HD11      -18.3997  -13.5483    2.2417 H       4  LEU4        0.0232
     98 HD12      -17.4049  -14.7417    3.0935 H       4  LEU4        0.0232
     99 HD13      -16.7849  -13.9560    1.6350 H       4  LEU4        0.0232
    100 H         -18.3535   -7.2875    1.1373 H       3  UNK3        0.0651
    101 H         -18.6853   -8.2270   -8.9520 H       1  UNK1        0.0636
    102 H         -17.6508  -12.2619   -7.8096 H       1  UNK1        0.0636
    103 HB1        -9.6325  -11.8322   -0.3284 H       6  ASP6        0.0348
    104 HB2       -10.6570  -12.5427   -1.5854 H       6  ASP6        0.0348
    105 HD1        -9.8890   -8.1893    0.9018 H       5  TRP5        0.0810
    106 HB1       -18.4701   -7.5401   -2.1905 H       2  ASP2        0.0348
    107 HB2       -17.7467   -8.8007   -3.1871 H       2  ASP2        0.0348
    108 H         -21.0278   -8.7335   -8.5505 H       1  UNK1        0.0618
    109 H         -19.9914  -12.7457   -7.4544 H       1  UNK1        0.0618
    110 HE3       -10.2049   -8.2040    6.0905 H       5  TRP5        0.0624
    111 H         -21.7207  -10.9974   -7.7956 H       1  UNK1        0.0618
    112 HZ2        -5.8062   -8.4420    3.7353 H       5  TRP5        0.0638
    113 HZ3        -8.0911   -8.2877    7.3831 H       5  TRP5        0.0618
    114 H         -15.4673   -4.6894    1.8528 H       3  UNK3        0.0626
    115 HH2        -5.9110   -8.4027    6.2227 H       5  TRP5        0.0618
    116 H         -16.4254   -2.3967    2.7673 H       3  UNK3        0.0623
    117 H         -19.0262   -2.5544    3.1748 H       3  UNK3        0.0693
@<TRIPOS>BOND
     1     1    56   ar
     2     1    66   ar
     3     2    26    2
     4     3    35    2
     5     4    37    2
     6     5    39    2
     7     6    40    2
     8     7    48    2
     9     8    52    2
    10     9    60   ar
    11    10    60   ar
    12    11    64   ar
    13    12    64   ar
    14    13    22    1
    15    13    23    1
    16    14    24    1
    17    14    25    1
    18    14    32    1
    19    15    28    1
    20    15    40   am
    21    16    35   am
    22    16    31    1
    23    17    48   am
    24    17    29    1
    25    18    39   am
    26    18    36    1
    27    19    37   am
    28    19    41    1
    29    20    52   am
    30    20    44    1
    31    21    50   ar
    32    21    51   ar
    33    22    24    1
    34    23    25    1
    35    26    27    1
    36    26    13   am
    37    28    37    1
    38    28    27    1
    39    29    35    1
    40    29    30    1
    41    30    33    1
    42    31    39    1
    43    31    34    1
    44    32    45   ar
    45    32    46   ar
    46    33    43    1
    47    33    42    1
    48    34    38    1
    49    36    40    1
    50    36    49    1
    51    38    47   ar
    52    38    50   ar
    53    41    52    1
    54    41    53    1
    55    44    48    1
    56    44    56    1
    57    45    54   ar
    58    46    55   ar
    59    47    57   ar
    60    47    51   ar
    61    49    60    1
    62    51    59   ar
    63    53    64    1
    64    54    58   ar
    65    55    58   ar
    66    56    62   ar
    67    57    61   ar
    68    59    63   ar
    69    61    63   ar
    70    62    65   ar
    71    65    66   ar
    72    15    67    1
    73    16    68    1
    74    17    69    1
    75    18    70    1
    76    19    71    1
    77    20    72    1
    78    21    73    1
    79    22    74    1
    80    22    75    1
    81    23    76    1
    82    23    77    1
    83    24    78    1
    84    24    79    1
    85    25    80    1
    86    25    81    1
    87    27    82    1
    88    27    83    1
    89    28    84    1
    90    29    85    1
    91    30    86    1
    92    30    87    1
    93    31    88    1
    94    33    89    1
    95    34    90    1
    96    34    91    1
    97    36    92    1
    98    41    93    1
    99    42    94    1
   100    42    95    1
   101    42    96    1
   102    43    97    1
   103    43    98    1
   104    43    99    1
   105    44   100    1
   106    45   101    1
   107    46   102    1
   108    49   103    1
   109    49   104    1
   110    50   105    1
   111    53   106    1
   112    53   107    1
   113    54   108    1
   114    55   109    1
   115    57   110    1
   116    58   111    1
   117    59   112    1
   118    61   113    1
   119    62   114    1
   120    63   115    1
   121    65   116    1
   122    66   117    1
@<TRIPOS>MOLECULE
123882
 117 122 0 0 0
SMALL
GASTEIGER

@<TRIPOS>ATOM
      1 S         -18.9638   -4.8019    2.2403 S.2     3  UNK3       -0.0993
      2 O         -11.5875  -10.7454   -5.6306 O.2     1  UNK1       -0.2755
      3 O         -14.4100  -11.5286    3.9863 O.2     4  LEU4       -0.2738
      4 O         -13.3462   -6.9246   -2.6505 O.2     1  UNK1       -0.2737
      5 O         -13.4026   -9.0360    1.0360 O.2     5  TRP5       -0.2738
      6 O         -11.0126   -9.0557   -1.3022 O.2     6  ASP6       -0.2738
      7 O         -16.8836   -7.4128    3.8519 O.2     3  UNK3       -0.2734
      8 O         -16.3383   -8.9363   -0.2442 O.2     2  ASP2       -0.2737
      9 OD1       -10.7341  -12.9418    1.6631 O.co2   6  ASP6       -0.5497
     10 OD2       -11.2486  -14.3683   -0.0526 O.co2   6  ASP6       -0.5497
     11 OD1       -16.6206   -6.9744   -4.8416 O.co2   2  ASP2       -0.5497
     12 OD2       -18.8318   -7.4620   -4.6028 O.co2   2  ASP2       -0.5497
     13 N         -13.3197  -12.2104   -5.2931 N.am    1  UNK1       -0.2984
     14 N         -14.8300  -14.3438   -6.5609 N.pl3   1  UNK1       -0.3269
     15 N         -12.7700  -10.1894   -2.2682 N.am    1  UNK1       -0.3020
     16 N         -13.9799   -9.3128    3.5910 N.am    5  TRP5       -0.3022
     17 N         -16.3445   -8.9844    2.3116 N.am    4  LEU4       -0.3022
     18 N         -11.6064  -10.4497    1.1827 N.am    6  ASP6       -0.3021
     19 N         -15.1070   -8.3934   -2.6241 N.am    2  ASP2       -0.3021
     20 N         -16.3543   -6.7020    0.2407 N.am    3  UNK3       -0.2984
     21 NE1       -12.3752   -7.0474    7.0835 N.ar    5  TRP5       -0.3604
     22 C         -14.6894  -12.5176   -4.8618 C.3     1  UNK1        0.0304
     23 C         -12.6069  -13.3164   -5.9419 C.3     1  UNK1        0.0304
     24 C         -15.1235  -13.9642   -5.1637 C.3     1  UNK1        0.0280
     25 C         -13.4708  -13.9735   -7.0429 C.3     1  UNK1        0.0280
     26 C         -12.7252  -10.9571   -5.2053 C.2     1  UNK1        0.2179
     27 C         -13.5440   -9.8239   -4.6131 C.3     1  UNK1        0.0510
     28 C         -12.9068   -9.2210   -3.3601 C.3     1  UNK1        0.1076
     29 CA        -16.2705  -10.1394    3.2070 C.3     4  LEU4        0.0997
     30 CB        -16.8602  -11.3910    2.5171 C.3     4  LEU4       -0.0236
     31 CA        -12.5563   -9.4798    3.2659 C.3     5  TRP5        0.1034
     32 C         -15.8358  -14.2466   -7.5311 C.ar    1  UNK1        0.0298
     33 CG        -18.3700  -11.4139    2.1735 C.3     4  LEU4       -0.0446
     34 CB        -11.7360   -8.2425    3.6484 C.3     5  TRP5        0.0013
     35 C         -14.7966  -10.4274    3.6039 C.2     4  LEU4        0.2340
     36 CA        -11.8714  -11.0311   -0.1385 C.3     6  ASP6        0.1045
     37 C         -13.7900   -8.0570   -2.8484 C.2     1  UNK1        0.2344
     38 CG        -11.7700   -7.9157    5.1171 C.ar    5  TRP5       -0.0201
     39 C         -12.5642   -9.6257    1.7264 C.2     5  TRP5        0.2343
     40 C         -11.8384   -9.9635   -1.2602 C.2     6  ASP6        0.2343
     41 CA        -16.0763   -7.4318   -2.1173 C.3     2  ASP2        0.1045
     42 CD2       -19.2544  -11.2632    3.4090 C.3     4  LEU4       -0.0626
     43 CD1       -18.7977  -10.4177    1.1007 C.3     4  LEU4       -0.0626
     44 C         -17.1587   -6.7943    1.4645 C.3     3  UNK3        0.1311
     45 C         -16.9614  -13.4201   -7.3997 C.ar    1  UNK1       -0.0407
     46 C         -15.7440  -15.0160   -8.7030 C.ar    1  UNK1       -0.0407
     47 CD2       -10.8857   -8.4032    6.1346 C.ar    5  TRP5        0.0029
     48 C         -16.7177   -7.7105    2.6677 C.2     3  UNK3        0.2390
     49 CB        -10.8545  -12.0990   -0.5238 C.3     6  ASP6        0.0138
     50 CD1       -12.6701   -7.0751    5.7478 C.ar    5  TRP5        0.0060
     51 CE2       -11.2787   -7.8328    7.3470 C.ar    5  TRP5        0.0467
     52 C         -16.2305   -7.7674   -0.6230 C.2     2  ASP2        0.2345
     53 CB        -17.4618   -7.6239   -2.7213 C.3     2  ASP2        0.0138
     54 C         -17.9502  -13.3618   -8.3903 C.ar    1  UNK1       -0.0600
     55 C         -16.7356  -14.9745   -9.6905 C.ar    1  UNK1       -0.0600
     56 C         -17.3670   -5.3822    1.9755 C.ar    3  UNK3        0.0189
     57 CE3        -9.7849   -9.2835    6.1351 C.ar    5  TRP5       -0.0523
     58 C         -17.8410  -14.1447   -9.5338 C.ar    1  UNK1       -0.0616
     59 CZ2       -10.6191   -8.0885    8.5560 C.ar    5  TRP5       -0.0378
     60 CG        -10.9571  -13.2518    0.4551 C.2     6  ASP6        0.0440
     61 CZ3        -9.1153   -9.5512    7.3345 C.ar    5  TRP5       -0.0611
     62 C         -16.4260   -4.4182    2.2941 C.ar    3  UNK3       -0.0493
     63 CH2        -9.5255   -8.9586    8.5259 C.ar    5  TRP5       -0.0598
     64 CG        -17.6440   -7.3191   -4.1962 C.2     2  ASP2        0.0440
     65 C         -17.0223   -3.2070    2.7539 C.ar    3  UNK3       -0.0544
     66 C         -18.3960   -3.2844    2.7791 C.ar    3  UNK3       -0.0240
     67 H         -13.5644  -10.7628   -2.0196 H       1  UNK1        0.1495
     68 H         -14.4083   -8.5164    3.1304 H       5  TRP5        0.1495
     69 H         -16.0815   -9.1462    1.3350 H       4  LEU4        0.1495
     70 H         -11.1985  -11.1471    1.8177 H       6  ASP6        0.1495
     71 H         -15.3773   -9.3620   -2.5715 H       2  ASP2        0.1495
     72 H         -16.3408   -5.7958   -0.2108 H       3  UNK3        0.1498
     73 HE1       -12.8930   -6.5315    7.7789 H       5  TRP5        0.1653
     74 H         -15.3588  -11.8218   -5.3785 H       1  UNK1        0.0480
     75 H         -14.7611  -12.3264   -3.7862 H       1  UNK1        0.0480
     76 H         -12.3666  -14.0475   -5.1609 H       1  UNK1        0.0480
     77 H         -11.6566  -12.9824   -6.3721 H       1  UNK1        0.0480
     78 H         -14.5632  -14.6477   -4.5139 H       1  UNK1        0.0479
     79 H         -16.1766  -14.1194   -4.9044 H       1  UNK1        0.0479
     80 H         -13.5442  -13.2619   -7.8774 H       1  UNK1        0.0479
     81 H         -12.9632  -14.8719   -7.4111 H       1  UNK1        0.0479
     82 H         -14.5685  -10.1332   -4.4137 H       1  UNK1        0.0381
     83 H         -13.6261   -9.0545   -5.3928 H       1  UNK1        0.0381
     84 H         -11.9186   -8.8158   -3.6019 H       1  UNK1        0.0599
     85 HA        -16.8069   -9.9164    4.1363 H       4  LEU4        0.0594
     86 HB1       -16.6712  -12.2628    3.1590 H       4  LEU4        0.0290
     87 HB2       -16.2972  -11.5828    1.5932 H       4  LEU4        0.0290
     88 HA        -12.1729  -10.3895    3.7364 H       5  TRP5        0.0598
     89 HG        -18.5681  -12.4103    1.7577 H       4  LEU4        0.0296
     90 HB1       -12.0997   -7.3659    3.0941 H       5  TRP5        0.0337
     91 HB2       -10.6932   -8.3780    3.3320 H       5  TRP5        0.0337
     92 HA        -12.8771  -11.4665   -0.0908 H       6  ASP6        0.0598
     93 HA        -15.7123   -6.4071   -2.2496 H       2  ASP2        0.0598
     94 HD21      -19.1263  -10.2853    3.8830 H       4  LEU4        0.0232
     95 HD22      -19.0222  -12.0398    4.1459 H       4  LEU4        0.0232
     96 HD23      -20.3085  -11.3672    3.1375 H       4  LEU4        0.0232
     97 HD11      -18.7722   -9.3891    1.4599 H       4  LEU4        0.0232
     98 HD12      -19.8291  -10.6145    0.7820 H       4  LEU4        0.0232
     99 HD13      -18.1683  -10.5081    0.2091 H       4  LEU4        0.0232
    100 H         -18.1247   -7.2038    1.1400 H       3  UNK3        0.0651
    101 H         -17.0894  -12.7758   -6.5371 H       1  UNK1        0.0636
    102 H         -14.8994  -15.6858   -8.8384 H       1  UNK1        0.0636
    103 HB1        -9.8324  -11.7039   -0.5038 H       6  ASP6        0.0348
    104 HB2       -11.0425  -12.4585   -1.5451 H       6  ASP6        0.0348
    105 HD1       -13.5103   -6.5167    5.3570 H       5  TRP5        0.0810
    106 HB1       -18.1771   -6.9894   -2.1794 H       2  ASP2        0.0348
    107 HB2       -17.7973   -8.6616   -2.5675 H       2  ASP2        0.0348
    108 H         -18.7988  -12.6955   -8.2597 H       1  UNK1        0.0618
    109 H         -16.6425  -15.5950  -10.5769 H       1  UNK1        0.0618
    110 HE3        -9.4630   -9.7603    5.2123 H       5  TRP5        0.0624
    111 H         -18.6122  -14.1041  -10.2957 H       1  UNK1        0.0618
    112 HZ2       -10.9457   -7.6356    9.4861 H       5  TRP5        0.0638
    113 HZ3        -8.2713  -10.2366    7.3292 H       5  TRP5        0.0618
    114 H         -15.3583   -4.5789    2.2041 H       3  UNK3        0.0626
    115 HH2        -8.9938   -9.1833    9.4470 H       5  TRP5        0.0618
    116 H         -16.4685   -2.3271    3.0553 H       3  UNK3        0.0623
    117 H         -19.0980   -2.5233    3.0867 H       3  UNK3        0.0693
@<TRIPOS>BOND
     1     1    56   ar
     2     1    66   ar
     3     2    26    2
     4     3    35    2
     5     4    37    2
     6     5    39    2
     7     6    40    2
     8     7    48    2
     9     8    52    2
    10     9    60   ar
    11    10    60   ar
    12    11    64   ar
    13    12    64   ar
    14    13    22    1
    15    13    23    1
    16    14    24    1
    17    14    25    1
    18    14    32    1
    19    15    28    1
    20    15    40   am
    21    16    35   am
    22    16    31    1
    23    17    48   am
    24    17    29    1
    25    18    39   am
    26    18    36    1
    27    19    37   am
    28    19    41    1
    29    20    52   am
    30    20    44    1
    31    21    50   ar
    32    21    51   ar
    33    22    24    1
    34    23    25    1
    35    26    27    1
    36    26    13   am
    37    28    37    1
    38    28    27    1
    39    29    35    1
    40    29    30    1
    41    30    33    1
    42    31    39    1
    43    31    34    1
    44    32    45   ar
    45    32    46   ar
    46    33    43    1
    47    33    42    1
    48    34    38    1
    49    36    40    1
    50    36    49    1
    51    38    47   ar
    52    38    50   ar
    53    41    52    1
    54    41    53    1
    55    44    48    1
    56    44    56    1
    57    45    54   ar
    58    46    55   ar
    59    47    57   ar
    60    47    51   ar
    61    49    60    1
    62    51    59   ar
    63    53    64    1
    64    54    58   ar
    65    55    58   ar
    66    56    62   ar
    67    57    61   ar
    68    59    63   ar
    69    61    63   ar
    70    62    65   ar
    71    65    66   ar
    72    15    67    1
    73    16    68    1
    74    17    69    1
    75    18    70    1
    76    19    71    1
    77    20    72    1
    78    21    73    1
    79    22    74    1
    80    22    75    1
    81    23    76    1
    82    23    77    1
    83    24    78    1
    84    24    79    1
    85    25    80    1
    86    25    81    1
    87    27    82    1
    88    27    83    1
    89    28    84    1
    90    29    85    1
    91    30    86    1
    92    30    87    1
    93    31    88    1
    94    33    89    1
    95    34    90    1
    96    34    91    1
    97    36    92    1
    98    41    93    1
    99    42    94    1
   100    42    95    1
   101    42    96    1
   102    43    97    1
   103    43    98    1
   104    43    99    1
   105    44   100    1
   106    45   101    1
   107    46   102    1
   108    49   103    1
   109    49   104    1
   110    50   105    1
   111    53   106    1
   112    53   107    1
   113    54   108    1
   114    55   109    1
   115    57   110    1
   116    58   111    1
   117    59   112    1
   118    61   113    1
   119    62   114    1
   120    63   115    1
   121    65   116    1
   122    66   117    1
@<TRIPOS>MOLECULE
123882
 117 122 0 0 0
SMALL
GASTEIGER

@<TRIPOS>ATOM
      1 S         -19.0230   -4.7162    2.3347 S.2     3  UNK3       -0.0993
      2 O         -11.5111  -10.6333   -5.1769 O.2     1  UNK1       -0.2755
      3 O         -14.4582  -11.1707    4.5347 O.2     4  LEU4       -0.2738
      4 O         -13.5594   -7.1006   -2.0385 O.2     1  UNK1       -0.2737
      5 O         -13.5209   -9.3490    0.9268 O.2     5  TRP5       -0.2738
      6 O         -10.7776   -9.2495   -1.4503 O.2     6  ASP6       -0.2738
      7 O         -17.4363   -7.5499    3.8609 O.2     3  UNK3       -0.2734
      8 O         -16.9976   -9.0220   -0.2309 O.2     2  ASP2       -0.2737
      9 OD1       -10.6021  -12.8970    1.8031 O.co2   6  ASP6       -0.5497
     10 OD2       -10.9931  -14.3765    0.1010 O.co2   6  ASP6       -0.5497
     11 OD1       -16.7684   -8.5989   -4.7981 O.co2   2  ASP2       -0.5497
     12 OD2       -17.8904   -6.6027   -4.8980 O.co2   2  ASP2       -0.5497
     13 N         -13.3386  -11.8096   -5.9141 N.am    1  UNK1       -0.2984
     14 N         -14.4112  -13.1491   -8.2806 N.pl3   1  UNK1       -0.3269
     15 N         -12.7837  -10.1750   -2.1117 N.am    1  UNK1       -0.3020
     16 N         -14.0099   -9.1958    3.4630 N.am    5  TRP5       -0.3022
     17 N         -16.4273   -8.9605    2.3955 N.am    4  LEU4       -0.3022
     18 N         -11.5311  -10.4601    1.1620 N.am    6  ASP6       -0.3021
     19 N         -15.3155   -8.4762   -2.5428 N.am    2  ASP2       -0.3021
     20 N         -16.5767   -6.8527    0.2984 N.am    3  UNK3       -0.2984
     21 NE1       -11.4644   -8.1984    7.2005 N.ar    5  TRP5       -0.3604
     22 C         -14.7916  -11.9021   -6.1353 C.3     1  UNK1        0.0304
     23 C         -12.5193  -12.7709   -6.6541 C.3     1  UNK1        0.0304
     24 C         -15.2000  -13.0829   -7.0325 C.3     1  UNK1        0.0280
     25 C         -12.9555  -12.8725   -8.1270 C.3     1  UNK1        0.0280
     26 C         -12.7296  -10.8019   -5.1677 C.2     1  UNK1        0.2179
     27 C         -13.6671   -9.8943   -4.3937 C.3     1  UNK1        0.0510
     28 C         -13.0333   -9.2079   -3.1823 C.3     1  UNK1        0.1076
     29 CA        -16.2947  -10.0937    3.3305 C.3     4  LEU4        0.0997
     30 CB        -16.7733  -11.3616    2.5968 C.3     4  LEU4       -0.0236
     31 CA        -12.6044   -9.4844    3.1687 C.3     5  TRP5        0.1034
     32 C         -14.9492  -12.6286   -9.4654 C.ar    1  UNK1        0.0298
     33 CG        -16.8635  -12.6691    3.4079 C.3     4  LEU4       -0.0446
     34 CB        -11.6849   -8.3096    3.5192 C.3     5  TRP5        0.0013
     35 C         -14.8408  -10.2335    3.8360 C.2     4  LEU4        0.2340
     36 CA        -11.6787  -11.1141   -0.1406 C.3     6  ASP6        0.1045
     37 C         -13.9752   -8.1285   -2.5744 C.2     1  UNK1        0.2344
     38 CG        -11.6905   -7.9874    4.9910 C.ar    5  TRP5       -0.0201
     39 C         -12.6032   -9.7508    1.6494 C.2     5  TRP5        0.2343
     40 C         -11.6786  -10.0689   -1.2823 C.2     6  ASP6        0.2343
     41 CA        -16.3296   -7.5485   -2.0668 C.3     2  ASP2        0.1045
     42 CD2       -17.6845  -12.5219    4.6871 C.3     4  LEU4       -0.0626
     43 CD1       -17.4645  -13.7733    2.5302 C.3     4  LEU4       -0.0626
     44 C         -17.4141   -6.8482    1.4984 C.3     3  UNK3        0.1311
     45 C         -15.9789  -11.6783   -9.4982 C.ar    1  UNK1       -0.0407
     46 C         -14.4373  -13.0611  -10.7012 C.ar    1  UNK1       -0.0407
     47 CD2       -12.2155   -6.8130    5.6268 C.ar    5  TRP5        0.0029
     48 C         -17.0476   -7.7746    2.7123 C.2     3  UNK3        0.2390
     49 CB        -10.5640  -12.1168   -0.4118 C.3     6  ASP6        0.0138
     50 CD1       -11.2172   -8.8047    6.0005 C.ar    5  TRP5        0.0060
     51 CE2       -12.0610   -6.9753    7.0051 C.ar    5  TRP5        0.0467
     52 C         -16.6440   -7.8990   -0.5962 C.2     2  ASP2        0.2345
     53 CB        -17.6500   -7.6887   -2.8253 C.3     2  ASP2        0.0138
     54 C         -16.4656  -11.1703  -10.7086 C.ar    1  UNK1       -0.0600
     55 C         -14.9237  -12.5636  -11.9144 C.ar    1  UNK1       -0.0600
     56 C         -17.4918   -5.4165    1.9890 C.ar    3  UNK3        0.0189
     57 CE3       -12.8291   -5.6311    5.1603 C.ar    5  TRP5       -0.0523
     58 C         -15.9381  -11.6129  -11.9171 C.ar    1  UNK1       -0.0616
     59 CZ2       -12.4877   -6.0199    7.9371 C.ar    5  TRP5       -0.0378
     60 CG        -10.7357  -13.2440    0.5903 C.2     6  ASP6        0.0440
     61 CZ3       -13.2583   -4.6636    6.0775 C.ar    5  TRP5       -0.0611
     62 C         -16.4667   -4.5152    2.2218 C.ar    3  UNK3       -0.0493
     63 CH2       -13.0893   -4.8577    7.4461 C.ar    5  TRP5       -0.0598
     64 CG        -17.4103   -7.6133   -4.3206 C.2     2  ASP2        0.0440
     65 C         -16.9438   -3.2546    2.6840 C.ar    3  UNK3       -0.0544
     66 C         -18.3144   -3.2346    2.8042 C.ar    3  UNK3       -0.0240
     67 H         -13.6100  -10.5640   -1.6709 H       1  UNK1        0.1495
     68 H         -14.4450   -8.5742    2.7859 H       5  TRP5        0.1495
     69 H         -16.2223   -9.1439    1.4095 H       4  LEU4        0.1495
     70 H         -11.0760  -11.0859    1.8381 H       6  ASP6        0.1495
     71 H         -15.6555   -9.0330   -3.3286 H       2  ASP2        0.1495
     72 H         -16.3393   -5.9539   -0.1019 H       3  UNK3        0.1498
     73 HE1       -11.2590   -8.5998    8.1034 H       5  TRP5        0.1653
     74 H         -15.1157  -10.9522   -6.5737 H       1  UNK1        0.0480
     75 H         -15.2891  -12.0183   -5.1676 H       1  UNK1        0.0480
     76 H         -12.6406  -13.7411   -6.1566 H       1  UNK1        0.0480
     77 H         -11.4570  -12.5138   -6.6000 H       1  UNK1        0.0480
     78 H         -15.0125  -14.0164   -6.4851 H       1  UNK1        0.0479
     79 H         -16.2803  -13.0776   -7.2194 H       1  UNK1        0.0479
     80 H         -12.6957  -11.9250   -8.6183 H       1  UNK1        0.0479
     81 H         -12.3856  -13.6728   -8.6132 H       1  UNK1        0.0479
     82 H         -14.5097  -10.4939   -4.0422 H       1  UNK1        0.0381
     83 H         -14.0390   -9.1433   -5.1008 H       1  UNK1        0.0381
     84 H         -12.1004   -8.7106   -3.4711 H       1  UNK1        0.0599
     85 HA        -16.9196   -9.8928    4.2054 H       4  LEU4        0.0594
     86 HB1       -16.1133  -11.5399    1.7356 H       4  LEU4        0.0290
     87 HB2       -17.7652  -11.1514    2.1713 H       4  LEU4        0.0290
     88 HA        -12.2945  -10.3998    3.6867 H       5  TRP5        0.0598
     89 HG        -15.8542  -12.9958    3.6808 H       4  LEU4        0.0296
     90 HB1       -11.9769   -7.4212    2.9451 H       5  TRP5        0.0337
     91 HB2       -10.6550   -8.5392    3.2167 H       5  TRP5        0.0337
     92 HA        -12.6459  -11.6350   -0.1263 H       6  ASP6        0.0598
     93 HA        -15.9552   -6.5223   -2.1509 H       2  ASP2        0.0598
     94 HD21      -18.6864  -12.1353    4.4739 H       4  LEU4        0.0232
     95 HD22      -17.1982  -11.8446    5.3955 H       4  LEU4        0.0232
     96 HD23      -17.7948  -13.4889    5.1899 H       4  LEU4        0.0232
     97 HD11      -18.4920  -13.5329    2.2360 H       4  LEU4        0.0232
     98 HD12      -17.4806  -14.7296    3.0636 H       4  LEU4        0.0232
     99 HD13      -16.8740  -13.9110    1.6180 H       4  LEU4        0.0232
    100 H         -18.4082   -7.1873    1.1746 H       3  UNK3        0.0651
    101 H         -16.4048  -11.2781   -8.5823 H       1  UNK1        0.0636
    102 H         -13.6544  -13.8148  -10.7210 H       1  UNK1        0.0636
    103 HB1        -9.5725  -11.6663   -0.2891 H       6  ASP6        0.0348
    104 HB2       -10.6295  -12.5025   -1.4363 H       6  ASP6        0.0348
    105 HD1       -10.7667   -9.7882    5.9610 H       5  TRP5        0.0810
    106 HB1       -18.3540   -6.9117   -2.5034 H       2  ASP2        0.0348
    107 HB2       -18.1314   -8.6530   -2.6155 H       2  ASP2        0.0348
    108 H         -17.2499  -10.4177  -10.6944 H       1  UNK1        0.0618
    109 H         -14.5061  -12.9206  -12.8507 H       1  UNK1        0.0618
    110 HE3       -12.9783   -5.4762    4.0964 H       5  TRP5        0.0624
    111 H         -16.3145  -11.2137  -12.8538 H       1  UNK1        0.0618
    112 HZ2       -12.3689   -6.1778    9.0034 H       5  TRP5        0.0638
    113 HZ3       -13.7386   -3.7596    5.7129 H       5  TRP5        0.0618
    114 H         -15.4199   -4.7530    2.0670 H       3  UNK3        0.0626
    115 HH2       -13.4398   -4.1006    8.1427 H       5  TRP5        0.0618
    116 H         -16.3112   -2.4096    2.9240 H       3  UNK3        0.0623
    117 H         -18.9393   -2.4206    3.1427 H       3  UNK3        0.0693
@<TRIPOS>BOND
     1     1    56   ar
     2     1    66   ar
     3     2    26    2
     4     3    35    2
     5     4    37    2
     6     5    39    2
     7     6    40    2
     8     7    48    2
     9     8    52    2
    10     9    60   ar
    11    10    60   ar
    12    11    64   ar
    13    12    64   ar
    14    13    22    1
    15    13    23    1
    16    14    24    1
    17    14    25    1
    18    14    32    1
    19    15    28    1
    20    15    40   am
    21    16    35   am
    22    16    31    1
    23    17    48   am
    24    17    29    1
    25    18    39   am
    26    18    36    1
    27    19    37   am
    28    19    41    1
    29    20    52   am
    30    20    44    1
    31    21    50   ar
    32    21    51   ar
    33    22    24    1
    34    23    25    1
    35    26    27    1
    36    26    13   am
    37    28    37    1
    38    28    27    1
    39    29    35    1
    40    29    30    1
    41    30    33    1
    42    31    39    1
    43    31    34    1
    44    32    45   ar
    45    32    46   ar
    46    33    43    1
    47    33    42    1
    48    34    38    1
    49    36    40    1
    50    36    49    1
    51    38    47   ar
    52    38    50   ar
    53    41    52    1
    54    41    53    1
    55    44    48    1
    56    44    56    1
    57    45    54   ar
    58    46    55   ar
    59    47    57   ar
    60    47    51   ar
    61    49    60    1
    62    51    59   ar
    63    53    64    1
    64    54    58   ar
    65    55    58   ar
    66    56    62   ar
    67    57    61   ar
    68    59    63   ar
    69    61    63   ar
    70    62    65   ar
    71    65    66   ar
    72    15    67    1
    73    16    68    1
    74    17    69    1
    75    18    70    1
    76    19    71    1
    77    20    72    1
    78    21    73    1
    79    22    74    1
    80    22    75    1
    81    23    76    1
    82    23    77    1
    83    24    78    1
    84    24    79    1
    85    25    80    1
    86    25    81    1
    87    27    82    1
    88    27    83    1
    89    28    84    1
    90    29    85    1
    91    30    86    1
    92    30    87    1
    93    31    88    1
    94    33    89    1
    95    34    90    1
    96    34    91    1
    97    36    92    1
    98    41    93    1
    99    42    94    1
   100    42    95    1
   101    42    96    1
   102    43    97    1
   103    43    98    1
   104    43    99    1
   105    44   100    1
   106    45   101    1
   107    46   102    1
   108    49   103    1
   109    49   104    1
   110    50   105    1
   111    53   106    1
   112    53   107    1
   113    54   108    1
   114    55   109    1
   115    57   110    1
   116    58   111    1
   117    59   112    1
   118    61   113    1
   119    62   114    1
   120    63   115    1
   121    65   116    1
   122    66   117    1
@<TRIPOS>MOLECULE
123882
 117 122 0 0 0
SMALL
GASTEIGER

@<TRIPOS>ATOM
      1 S         -16.1947   -4.4559    2.2122 S.2     3  UNK3       -0.0993
      2 O         -11.3841  -10.8628   -5.0735 O.2     1  UNK1       -0.2755
      3 O         -14.3069  -11.2335    4.4985 O.2     4  LEU4       -0.2738
      4 O         -13.6392   -6.9413   -3.2840 O.2     1  UNK1       -0.2737
      5 O         -13.4602   -9.1425    0.9173 O.2     5  TRP5       -0.2738
      6 O         -10.9100   -9.1430   -1.4582 O.2     6  ASP6       -0.2738
      7 O         -17.3736   -7.6540    3.9803 O.2     3  UNK3       -0.2734
      8 O         -16.8682   -9.0792   -0.1585 O.2     2  ASP2       -0.2737
      9 OD1       -10.5674  -12.8043    1.7448 O.co2   6  ASP6       -0.5497
     10 OD2       -10.8496  -14.3656    0.0963 O.co2   6  ASP6       -0.5497
     11 OD1       -19.1565   -8.6170   -2.8643 O.co2   2  ASP2       -0.5497
     12 OD2       -17.2121   -9.6606   -3.4838 O.co2   2  ASP2       -0.5497
     13 N         -13.1118  -11.5711   -6.3901 N.am    1  UNK1       -0.2984
     14 N         -13.4201  -11.9439   -9.2454 N.pl3   1  UNK1       -0.3269
     15 N         -12.7786  -10.2123   -2.2649 N.am    1  UNK1       -0.3020
     16 N         -13.9577   -9.2178    3.4703 N.am    5  TRP5       -0.3022
     17 N         -16.3981   -9.0406    2.4672 N.am    4  LEU4       -0.3022
     18 N         -11.5587  -10.4105    1.0959 N.am    6  ASP6       -0.3021
     19 N         -15.0094   -8.4870   -2.2939 N.am    2  ASP2       -0.3021
     20 N         -16.6141   -6.8953    0.4164 N.am    3  UNK3       -0.2984
     21 NE1        -8.1517   -8.9427    3.2917 N.ar    5  TRP5       -0.3604
     22 C         -14.3953  -11.2612   -7.0341 C.3     1  UNK1        0.0304
     23 C         -12.2616  -12.5346   -7.0898 C.3     1  UNK1        0.0304
     24 C         -14.6049  -12.0205   -8.3582 C.3     1  UNK1        0.0280
     25 C         -12.1069  -12.1605   -8.5712 C.3     1  UNK1        0.0280
     26 C         -12.5813  -10.8167   -5.3500 C.2     1  UNK1        0.2179
     27 C         -13.5690   -9.9444   -4.5960 C.3     1  UNK1        0.0510
     28 C         -12.9443   -9.2717   -3.3755 C.3     1  UNK1        0.1076
     29 CA        -16.2155  -10.1827    3.3795 C.3     4  LEU4        0.0997
     30 CB        -16.6973  -11.4457    2.6424 C.3     4  LEU4       -0.0236
     31 CA        -12.5377   -9.4163    3.1408 C.3     5  TRP5        0.1034
     32 C         -13.3622  -11.0024  -10.2801 C.ar    1  UNK1        0.0298
     33 CG        -16.7931  -12.7514    3.4533 C.3     4  LEU4       -0.0446
     34 CB        -11.7444   -8.1701    3.5313 C.3     5  TRP5        0.0013
     35 C         -14.7380  -10.2981    3.8295 C.2     4  LEU4        0.2340
     36 CA        -11.7606  -11.0647   -0.1946 C.3     6  ASP6        0.1045
     37 C         -13.8566   -8.1065   -2.9458 C.2     1  UNK1        0.2344
     38 CG        -10.2683   -8.2452    3.3004 C.ar    5  TRP5       -0.0201
     39 C         -12.5635   -9.6324    1.6129 C.2     5  TRP5        0.2343
     40 C         -11.7600  -10.0241   -1.3410 C.2     6  ASP6        0.2343
     41 CA        -16.0207   -7.5377   -1.8752 C.3     2  ASP2        0.1045
     42 CD2       -17.6307  -12.6029    4.7217 C.3     4  LEU4       -0.0626
     43 CD1       -17.3855  -13.8544    2.5680 C.3     4  LEU4       -0.0626
     44 C         -17.4322   -6.9343    1.6231 C.3     3  UNK3        0.1311
     45 C         -12.4286  -11.1723  -11.3192 C.ar    1  UNK1       -0.0407
     46 C         -14.1849   -9.8704  -10.3461 C.ar    1  UNK1       -0.0407
     47 CD2        -9.4735   -7.3066    2.5641 C.ar    5  TRP5        0.0029
     48 C         -17.0206   -7.8657    2.8161 C.2     3  UNK3        0.2390
     49 CB        -10.6755  -12.0933   -0.4967 C.3     6  ASP6        0.0138
     50 CD1        -9.4078   -9.2249    3.7554 C.ar    5  TRP5        0.0060
     51 CE2        -8.1539   -7.7578    2.5937 C.ar    5  TRP5        0.0467
     52 C         -16.5516   -7.9371   -0.4831 C.2     2  ASP2        0.2345
     53 CB        -17.1570   -7.3818   -2.8740 C.3     2  ASP2        0.0138
     54 C         -12.3062  -10.2492  -12.3626 C.ar    1  UNK1       -0.0600
     55 C         -14.0640   -8.9376  -11.3844 C.ar    1  UNK1       -0.0600
     56 C         -17.5555   -5.5091    2.1422 C.ar    3  UNK3        0.0189
     57 CE3        -9.7598   -6.1186    1.8598 C.ar    5  TRP5       -0.0523
     58 C         -13.1236   -9.1260  -12.3920 C.ar    1  UNK1       -0.0616
     59 CZ2        -7.1049   -7.0748    1.9649 C.ar    5  TRP5       -0.0378
     60 CG        -10.7101  -13.1958    0.5470 C.2     6  ASP6        0.0440
     61 CZ3        -8.7252   -5.4255    1.2220 C.ar    5  TRP5       -0.0611
     62 C         -18.6916   -4.8799    2.6196 C.ar    3  UNK3       -0.0493
     63 CH2        -7.4165   -5.8972    1.2782 C.ar    5  TRP5       -0.0598
     64 CG        -17.9137   -8.6888   -3.0758 C.2     2  ASP2        0.0440
     65 C         -18.4483   -3.5341    3.0177 C.ar    3  UNK3       -0.0544
     66 C         -17.1350   -3.1704    2.8291 C.ar    3  UNK3       -0.0240
     67 H         -13.6084  -10.6751   -1.9144 H       1  UNK1        0.1495
     68 H         -14.4335   -8.6143    2.8021 H       5  TRP5        0.1495
     69 H         -16.2558   -9.2232    1.4687 H       4  LEU4        0.1495
     70 H         -11.0706  -11.0222    1.7612 H       6  ASP6        0.1495
     71 H         -15.3803   -9.4253   -2.4482 H       2  ASP2        0.1495
     72 H         -16.3775   -5.9769    0.0658 H       3  UNK3        0.1498
     73 HE1        -7.3429   -9.5323    3.4217 H       5  TRP5        0.1653
     74 H         -14.4208  -10.1829   -7.2238 H       1  UNK1        0.0480
     75 H         -15.2005  -11.4994   -6.3312 H       1  UNK1        0.0480
     76 H         -12.7415  -13.5159   -6.9927 H       1  UNK1        0.0480
     77 H         -11.2758  -12.6160   -6.6212 H       1  UNK1        0.0480
     78 H         -14.7699  -13.0820   -8.1310 H       1  UNK1        0.0479
     79 H         -15.5227  -11.6912   -8.8584 H       1  UNK1        0.0479
     80 H         -11.4983  -11.2471   -8.6210 H       1  UNK1        0.0479
     81 H         -11.5630  -12.9591   -9.0884 H       1  UNK1        0.0479
     82 H         -14.4242  -10.5614   -4.2967 H       1  UNK1        0.0381
     83 H         -13.9265   -9.1722   -5.2874 H       1  UNK1        0.0381
     84 H         -11.9681   -8.8385   -3.6239 H       1  UNK1        0.0599
     85 HA        -16.8128  -10.0012    4.2778 H       4  LEU4        0.0594
     86 HB1       -16.0375  -11.6237    1.7810 H       4  LEU4        0.0290
     87 HB2       -17.6891  -11.2334    2.2172 H       4  LEU4        0.0290
     88 HA        -12.1641  -10.3192    3.6357 H       5  TRP5        0.0598
     89 HG        -15.7866  -13.0753    3.7396 H       4  LEU4        0.0296
     90 HB1       -11.9037   -7.9692    4.6001 H       5  TRP5        0.0337
     91 HB2       -12.1561   -7.2998    3.0046 H       5  TRP5        0.0337
     92 HA        -12.7403  -11.5585   -0.1505 H       6  ASP6        0.0598
     93 HA        -15.5305   -6.5609   -1.7814 H       2  ASP2        0.0598
     94 HD21      -18.6269  -12.2082    4.4962 H       4  LEU4        0.0232
     95 HD22      -17.1492  -11.9312    5.4386 H       4  LEU4        0.0232
     96 HD23      -17.7550  -13.5705    5.2200 H       4  LEU4        0.0232
     97 HD11      -18.4094  -13.6120    2.2623 H       4  LEU4        0.0232
     98 HD12      -17.4090  -14.8110    3.1005 H       4  LEU4        0.0232
     99 HD13      -16.7856  -13.9915    1.6618 H       4  LEU4        0.0232
    100 H         -18.4252   -7.2845    1.3096 H       3  UNK3        0.0651
    101 H         -11.7868  -12.0497  -11.3260 H       1  UNK1        0.0636
    102 H         -14.9150   -9.6625   -9.5704 H       1  UNK1        0.0636
    103 HB1        -9.6798  -11.6340   -0.4819 H       6  ASP6        0.0348
    104 HB2       -10.8211  -12.5172   -1.4983 H       6  ASP6        0.0348
    105 HD1        -9.5904  -10.1270    4.3260 H       5  TRP5        0.0810
    106 HB1       -16.7756   -7.0636   -3.8513 H       2  ASP2        0.0348
    107 HB2       -17.8529   -6.6072   -2.5276 H       2  ASP2        0.0348
    108 H         -11.5704  -10.4124  -13.1442 H       1  UNK1        0.0618
    109 H         -14.7018   -8.0578  -11.3911 H       1  UNK1        0.0618
    110 HE3       -10.7807   -5.7565    1.7855 H       5  TRP5        0.0624
    111 H         -13.0268   -8.3984  -13.1920 H       1  UNK1        0.0618
    112 HZ2        -6.0905   -7.4559    1.9853 H       5  TRP5        0.0638
    113 HZ3        -8.9564   -4.5258    0.6586 H       5  TRP5        0.0618
    114 H         -19.6527   -5.3757    2.6906 H       3  UNK3        0.0626
    115 HH2        -6.6302   -5.3557    0.7596 H       5  TRP5        0.0618
    116 H         -19.1998   -2.8690    3.4227 H       3  UNK3        0.0623
    117 H         -16.6741   -2.2152    3.0370 H       3  UNK3        0.0693
@<TRIPOS>BOND
     1     1    56   ar
     2     1    66   ar
     3     2    26    2
     4     3    35    2
     5     4    37    2
     6     5    39    2
     7     6    40    2
     8     7    48    2
     9     8    52    2
    10     9    60   ar
    11    10    60   ar
    12    11    64   ar
    13    12    64   ar
    14    13    22    1
    15    13    23    1
    16    14    24    1
    17    14    25    1
    18    14    32    1
    19    15    28    1
    20    15    40   am
    21    16    35   am
    22    16    31    1
    23    17    48   am
    24    17    29    1
    25    18    39   am
    26    18    36    1
    27    19    37   am
    28    19    41    1
    29    20    52   am
    30    20    44    1
    31    21    50   ar
    32    21    51   ar
    33    22    24    1
    34    23    25    1
    35    26    27    1
    36    26    13   am
    37    28    37    1
    38    28    27    1
    39    29    35    1
    40    29    30    1
    41    30    33    1
    42    31    39    1
    43    31    34    1
    44    32    45   ar
    45    32    46   ar
    46    33    43    1
    47    33    42    1
    48    34    38    1
    49    36    40    1
    50    36    49    1
    51    38    47   ar
    52    38    50   ar
    53    41    52    1
    54    41    53    1
    55    44    48    1
    56    44    56    1
    57    45    54   ar
    58    46    55   ar
    59    47    57   ar
    60    47    51   ar
    61    49    60    1
    62    51    59   ar
    63    53    64    1
    64    54    58   ar
    65    55    58   ar
    66    56    62   ar
    67    57    61   ar
    68    59    63   ar
    69    61    63   ar
    70    62    65   ar
    71    65    66   ar
    72    15    67    1
    73    16    68    1
    74    17    69    1
    75    18    70    1
    76    19    71    1
    77    20    72    1
    78    21    73    1
    79    22    74    1
    80    22    75    1
    81    23    76    1
    82    23    77    1
    83    24    78    1
    84    24    79    1
    85    25    80    1
    86    25    81    1
    87    27    82    1
    88    27    83    1
    89    28    84    1
    90    29    85    1
    91    30    86    1
    92    30    87    1
    93    31    88    1
    94    33    89    1
    95    34    90    1
    96    34    91    1
    97    36    92    1
    98    41    93    1
    99    42    94    1
   100    42    95    1
   101    42    96    1
   102    43    97    1
   103    43    98    1
   104    43    99    1
   105    44   100    1
   106    45   101    1
   107    46   102    1
   108    49   103    1
   109    49   104    1
   110    50   105    1
   111    53   106    1
   112    53   107    1
   113    54   108    1
   114    55   109    1
   115    57   110    1
   116    58   111    1
   117    59   112    1
   118    61   113    1
   119    62   114    1
   120    63   115    1
   121    65   116    1
   122    66   117    1
@<TRIPOS>MOLECULE
123882
 117 122 0 0 0
SMALL
GASTEIGER

@<TRIPOS>ATOM
      1 S         -19.0308   -4.7558    2.4173 S.2     3  UNK3       -0.0993
      2 O         -11.4823  -10.8406   -5.0443 O.2     1  UNK1       -0.2755
      3 O         -14.4616  -11.2132    4.5164 O.2     4  LEU4       -0.2738
      4 O         -13.6494   -6.8489   -3.0219 O.2     1  UNK1       -0.2737
      5 O         -13.5680   -9.3168    0.9700 O.2     5  TRP5       -0.2738
      6 O         -10.9886   -9.0039   -1.2539 O.2     6  ASP6       -0.2738
      7 O         -17.3158   -7.5136    3.9072 O.2     3  UNK3       -0.2734
      8 O         -17.0492   -9.0441   -0.2056 O.2     2  ASP2       -0.2737
      9 OD1       -10.6076  -12.9000    1.7030 O.co2   6  ASP6       -0.5497
     10 OD2       -11.1536  -14.3079   -0.0176 O.co2   6  ASP6       -0.5497
     11 OD1       -17.4241   -6.2647   -4.4823 O.co2   2  ASP2       -0.5497
     12 OD2       -16.6885   -8.3306   -5.1502 O.co2   2  ASP2       -0.5497
     13 N         -13.2725  -11.4481   -6.3223 N.am    1  UNK1       -0.2984
     14 N         -14.5810  -13.6071   -7.7961 N.pl3   1  UNK1       -0.3269
     15 N         -12.7204  -10.1532   -2.2357 N.am    1  UNK1       -0.3020
     16 N         -14.0266   -9.2065    3.5023 N.am    5  TRP5       -0.3022
     17 N         -16.4452   -8.9812    2.4121 N.am    4  LEU4       -0.3022
     18 N         -11.5932  -10.4586    1.1633 N.am    6  ASP6       -0.3021
     19 N         -15.0395   -8.4952   -2.2317 N.am    2  ASP2       -0.3021
     20 N         -16.5934   -6.8760    0.3150 N.am    3  UNK3       -0.2984
     21 NE1       -12.2986   -7.0017    6.9158 N.ar    5  TRP5       -0.3604
     22 C         -12.4927  -12.5284   -6.9284 C.3     1  UNK1        0.0304
     23 C         -14.6411  -11.2698   -6.8362 C.3     1  UNK1        0.0304
     24 C         -13.1967  -13.2034   -8.1148 C.3     1  UNK1        0.0280
     25 C         -15.3657  -12.6199   -6.9973 C.3     1  UNK1        0.0280
     26 C         -12.6804  -10.7108   -5.3053 C.2     1  UNK1        0.2179
     27 C         -13.5823   -9.7734   -4.5335 C.3     1  UNK1        0.0510
     28 C         -12.9229   -9.1591   -3.2948 C.3     1  UNK1        0.1076
     29 CA        -16.3062  -10.1151    3.3453 C.3     4  LEU4        0.0997
     30 CB        -16.7898  -11.3802    2.6090 C.3     4  LEU4       -0.0236
     31 CA        -12.6181   -9.4793    3.1965 C.3     5  TRP5        0.1034
     32 C         -14.8711  -14.9386   -7.4711 C.ar    1  UNK1        0.0298
     33 CG        -16.8814  -12.6909    3.4138 C.3     4  LEU4       -0.0446
     34 CB        -11.7106   -8.2846    3.5078 C.3     5  TRP5        0.0013
     35 C         -14.8485  -10.2611    3.8432 C.2     4  LEU4        0.2340
     36 CA        -11.7564  -11.0593   -0.1635 C.3     6  ASP6        0.1045
     37 C         -13.8626   -8.0379   -2.7931 C.2     1  UNK1        0.2344
     38 CG        -11.7090   -7.9104    4.9660 C.ar    5  TRP5       -0.0201
     39 C         -12.6466   -9.7424    1.6768 C.2     5  TRP5        0.2343
     40 C         -11.7667   -9.9569   -1.2498 C.2     6  ASP6        0.2343
     41 CA        -16.1980   -7.6415   -2.0069 C.3     2  ASP2        0.1045
     42 CD2       -17.6967  -12.5456    4.6965 C.3     4  LEU4       -0.0626
     43 CD1       -17.4894  -13.7884    2.5327 C.3     4  LEU4       -0.0626
     44 C         -17.4150   -6.8591    1.5269 C.3     3  UNK3        0.1311
     45 C         -16.1932  -15.4046   -7.5826 C.ar    1  UNK1       -0.0407
     46 C         -13.9104  -15.8552   -7.0218 C.ar    1  UNK1       -0.0407
     47 CD2       -10.8341   -8.4011    5.9896 C.ar    5  TRP5        0.0029
     48 C         -17.0062   -7.7693    2.7418 C.2     3  UNK3        0.2390
     49 CB        -10.6508  -12.0547   -0.4867 C.3     6  ASP6        0.0138
     50 CD1       -12.5860   -7.0357    5.5802 C.ar    5  TRP5        0.0060
     51 CE2       -11.2246   -7.8131    7.1944 C.ar    5  TRP5        0.0467
     52 C         -16.6674   -7.9293   -0.5691 C.2     2  ASP2        0.2345
     53 CB        -17.3572   -8.0118   -2.9230 C.3     2  ASP2        0.0138
     54 C         -16.5438  -16.7183   -7.2536 C.ar    1  UNK1       -0.0600
     55 C         -14.2549  -17.1703   -6.6840 C.ar    1  UNK1       -0.0600
     56 C         -17.5014   -5.4233    2.0023 C.ar    3  UNK3        0.0189
     57 CE3        -9.7535   -9.3063    6.0074 C.ar    5  TRP5       -0.0523
     58 C         -15.5720  -17.6022   -6.8000 C.ar    1  UNK1       -0.0616
     59 CZ2       -10.5888   -8.0811    8.4134 C.ar    5  TRP5       -0.0378
     60 CG        -10.8161  -13.2052    0.4900 C.2     6  ASP6        0.0440
     61 CZ3        -9.1039   -9.5833    7.2170 C.ar    5  TRP5       -0.0611
     62 C         -16.4896   -4.4931    2.1709 C.ar    3  UNK3       -0.0493
     63 CH2        -9.5171   -8.9782    8.4015 C.ar    5  TRP5       -0.0598
     64 CG        -17.1085   -7.4764   -4.3171 C.2     2  ASP2        0.0440
     65 C         -16.9752   -3.2374    2.6381 C.ar    3  UNK3       -0.0544
     66 C         -18.3380   -3.2495    2.8270 C.ar    3  UNK3       -0.0240
     67 H         -13.4097  -10.8774   -2.0906 H       1  UNK1        0.1495
     68 H         -14.4642   -8.5758    2.8366 H       5  TRP5        0.1495
     69 H         -16.2710   -9.1728    1.4230 H       4  LEU4        0.1495
     70 H         -11.1304  -11.1035    1.8161 H       6  ASP6        0.1495
     71 H         -15.1414   -9.4782   -2.0235 H       2  ASP2        0.1495
     72 H         -16.3838   -5.9794   -0.1083 H       3  UNK3        0.1498
     73 HE1       -12.8126   -6.4728    7.6047 H       5  TRP5        0.1653
     74 H         -12.2967  -13.2621   -6.1374 H       1  UNK1        0.0480
     75 H         -11.5243  -12.1275   -7.2494 H       1  UNK1        0.0480
     76 H         -14.5458  -10.7769   -7.8114 H       1  UNK1        0.0480
     77 H         -15.2344  -10.6080   -6.2046 H       1  UNK1        0.0480
     78 H         -13.2528  -12.4842   -8.9426 H       1  UNK1        0.0479
     79 H         -12.5972  -14.0354   -8.5020 H       1  UNK1        0.0479
     80 H         -15.5543  -13.0180   -5.9908 H       1  UNK1        0.0479
     81 H         -16.3334  -12.4499   -7.4827 H       1  UNK1        0.0479
     82 H         -14.4749  -10.3339   -4.2259 H       1  UNK1        0.0381
     83 H         -13.8884   -8.9752   -5.2208 H       1  UNK1        0.0381
     84 H         -11.9570   -8.7034   -3.5413 H       1  UNK1        0.0599
     85 HA        -16.9279   -9.9130    4.2230 H       4  LEU4        0.0594
     86 HB1       -16.1323  -11.5563    1.7454 H       4  LEU4        0.0290
     87 HB2       -17.7820  -11.1661    2.1864 H       4  LEU4        0.0290
     88 HA        -12.2858  -10.3832    3.7186 H       5  TRP5        0.0598
     89 HG        -15.8725  -13.0231    3.6813 H       4  LEU4        0.0296
     90 HB1       -12.0258   -7.4105    2.9214 H       5  TRP5        0.0337
     91 HB2       -10.6839   -8.5032    3.1881 H       5  TRP5        0.0337
     92 HA        -12.7314  -11.5663   -0.1629 H       6  ASP6        0.0598
     93 HA        -15.9185   -6.5885   -2.1163 H       2  ASP2        0.0598
     94 HD21      -18.6982  -12.1550    4.4886 H       4  LEU4        0.0232
     95 HD22      -17.2054  -11.8722    5.4051 H       4  LEU4        0.0232
     96 HD23      -17.8081  -13.5141    5.1964 H       4  LEU4        0.0232
     97 HD11      -18.5169  -13.5427    2.2429 H       4  LEU4        0.0232
     98 HD12      -17.5074  -14.7472    3.0616 H       4  LEU4        0.0232
     99 HD13      -16.9023  -13.9239    1.6180 H       4  LEU4        0.0232
    100 H         -18.4107   -7.2137    1.2261 H       3  UNK3        0.0651
    101 H         -16.9691  -14.7347   -7.9449 H       1  UNK1        0.0636
    102 H         -12.8765  -15.5573   -6.8800 H       1  UNK1        0.0636
    103 HB1        -9.6557  -11.6112   -0.3673 H       6  ASP6        0.0348
    104 HB2       -10.7336  -12.4127   -1.5196 H       6  ASP6        0.0348
    105 HD1       -13.4163   -6.4698    5.1791 H       5  TRP5        0.0810
    106 HB1       -18.2922   -7.5705   -2.5524 H       2  ASP2        0.0348
    107 HB2       -17.5170   -9.0964   -2.9585 H       2  ASP2        0.0348
    108 H         -17.5765  -17.0407   -7.3472 H       1  UNK1        0.0618
    109 H         -13.4903  -17.8471   -6.3119 H       1  UNK1        0.0618
    110 HE3        -9.4324   -9.7974    5.0926 H       5  TRP5        0.0624
    111 H         -15.8395  -18.6186   -6.5274 H       1  UNK1        0.0618
    112 HZ2       -10.9194   -7.6205    9.3377 H       5  TRP5        0.0638
    113 HZ3        -8.2767  -10.2886    7.2259 H       5  TRP5        0.0618
    114 H         -15.4460   -4.7047    1.9649 H       3  UNK3        0.0626
    115 HH2        -9.0062   -9.2153    9.3310 H       5  TRP5        0.0618
    116 H         -16.3532   -2.3726    2.8308 H       3  UNK3        0.0623
    117 H         -18.9658   -2.4446    3.1822 H       3  UNK3        0.0693
@<TRIPOS>BOND
     1     1    56   ar
     2     1    66   ar
     3     2    26    2
     4     3    35    2
     5     4    37    2
     6     5    39    2
     7     6    40    2
     8     7    48    2
     9     8    52    2
    10     9    60   ar
    11    10    60   ar
    12    11    64   ar
    13    12    64   ar
    14    13    22    1
    15    13    23    1
    16    14    24    1
    17    14    25    1
    18    14    32    1
    19    15    28    1
    20    15    40   am
    21    16    35   am
    22    16    31    1
    23    17    48   am
    24    17    29    1
    25    18    39   am
    26    18    36    1
    27    19    37   am
    28    19    41    1
    29    20    52   am
    30    20    44    1
    31    21    50   ar
    32    21    51   ar
    33    22    24    1
    34    23    25    1
    35    26    27    1
    36    26    13   am
    37    28    37    1
    38    28    27    1
    39    29    35    1
    40    29    30    1
    41    30    33    1
    42    31    39    1
    43    31    34    1
    44    32    45   ar
    45    32    46   ar
    46    33    43    1
    47    33    42    1
    48    34    38    1
    49    36    40    1
    50    36    49    1
    51    38    47   ar
    52    38    50   ar
    53    41    52    1
    54    41    53    1
    55    44    48    1
    56    44    56    1
    57    45    54   ar
    58    46    55   ar
    59    47    57   ar
    60    47    51   ar
    61    49    60    1
    62    51    59   ar
    63    53    64    1
    64    54    58   ar
    65    55    58   ar
    66    56    62   ar
    67    57    61   ar
    68    59    63   ar
    69    61    63   ar
    70    62    65   ar
    71    65    66   ar
    72    15    67    1
    73    16    68    1
    74    17    69    1
    75    18    70    1
    76    19    71    1
    77    20    72    1
    78    21    73    1
    79    22    74    1
    80    22    75    1
    81    23    76    1
    82    23    77    1
    83    24    78    1
    84    24    79    1
    85    25    80    1
    86    25    81    1
    87    27    82    1
    88    27    83    1
    89    28    84    1
    90    29    85    1
    91    30    86    1
    92    30    87    1
    93    31    88    1
    94    33    89    1
    95    34    90    1
    96    34    91    1
    97    36    92    1
    98    41    93    1
    99    42    94    1
   100    42    95    1
   101    42    96    1
   102    43    97    1
   103    43    98    1
   104    43    99    1
   105    44   100    1
   106    45   101    1
   107    46   102    1
   108    49   103    1
   109    49   104    1
   110    50   105    1
   111    53   106    1
   112    53   107    1
   113    54   108    1
   114    55   109    1
   115    57   110    1
   116    58   111    1
   117    59   112    1
   118    61   113    1
   119    62   114    1
   120    63   115    1
   121    65   116    1
   122    66   117    1
