@<TRIPOS>MOLECULE
9911482
 51 53 0 0 0
SMALL
GASTEIGER

@<TRIPOS>ATOM
      1 S           1.9699    1.8438   -2.2361 S.O2    1  LIG1        0.0758
      2 S          -0.6729    3.4682    0.7096 S.2     1  LIG1       -0.0902
      3 O           4.8105    3.3217   -1.9264 O.2     1  LIG1       -0.3377
      4 O           2.2173    2.8731   -3.2241 O.2     1  LIG1       -0.1499
      5 O           1.2621    0.6392   -2.5961 O.2     1  LIG1       -0.1499
      6 O          -0.2774   -0.1054   -0.6219 O.2     1  LIG1       -0.2692
      7 O          -2.3733    0.7204   -3.0464 O.2     1  LIG1       -0.2923
      8 N          -2.1882    1.0924   -0.2003 N.am    1  LIG1       -0.2802
      9 N           3.4258    1.3293   -1.5247 N.pl3   1  LIG1       -0.1831
     10 N           5.9606    3.6572   -2.6157 N.ar    1  LIG1       -0.0810
     11 C          -3.0969    0.0178   -0.2915 C.ar    1  LIG1        0.0471
     12 C           1.0570    2.6660   -1.0099 C.ar    1  LIG1        0.1277
     13 C          -3.9887   -0.2044    0.7776 C.ar    1  LIG1       -0.0283
     14 C          -3.1526   -0.8172   -1.4296 C.ar    1  LIG1        0.0388
     15 C          -0.0973    2.2442   -0.3714 C.ar    1  LIG1        0.1007
     16 C          -4.9042   -2.1524   -0.3889 C.ar    1  LIG1       -0.0494
     17 C          -4.8813   -1.2910    0.7115 C.ar    1  LIG1       -0.0541
     18 C          -4.0471   -1.9003   -1.4639 C.ar    1  LIG1       -0.0466
     19 C          -0.8264    0.9817   -0.4566 C.2     1  LIG1        0.2568
     20 C           4.5552    1.9936   -2.0768 C.ar    1  LIG1        0.2399
     21 C           1.4679    3.9756   -0.5809 C.ar    1  LIG1       -0.0273
     22 C           5.5395    1.4229   -2.8543 C.ar    1  LIG1        0.0350
     23 C          -4.0314    0.6374    2.0259 C.3     1  LIG1       -0.0379
     24 C          -2.4477   -0.4613   -2.6970 C.2     1  LIG1        0.1619
     25 C           6.3711    2.5269   -3.2009 C.ar    1  LIG1        0.0854
     26 C           0.6086    4.5241    0.3390 C.ar    1  LIG1       -0.0217
     27 C          -5.8642   -3.3042   -0.4469 C.3     1  LIG1       -0.0397
     28 C           5.6717    0.0273   -3.3289 C.3     1  LIG1       -0.0330
     29 C           7.5368    2.5421   -4.1169 C.3     1  LIG1       -0.0188
     30 C          -1.9481   -1.5713   -3.5821 C.3     1  LIG1       -0.0013
     31 H          -2.4777    1.9266    0.2903 H       1  LIG1        0.1552
     32 H           3.4458    0.3131   -1.5958 H       1  LIG1        0.1768
     33 H          -5.5629   -1.4691    1.5430 H       1  LIG1        0.0623
     34 H          -4.1206   -2.5284   -2.3487 H       1  LIG1        0.0628
     35 H           2.3412    4.4970   -0.9604 H       1  LIG1        0.0643
     36 H          -3.1860    1.3228    2.1179 H       1  LIG1        0.0278
     37 H          -4.0030   -0.0073    2.9114 H       1  LIG1        0.0278
     38 H          -4.9534    1.2270    2.0444 H       1  LIG1        0.0278
     39 H           0.6718    5.4996    0.8032 H       1  LIG1        0.0694
     40 H          -6.4117   -3.4185    0.4945 H       1  LIG1        0.0278
     41 H          -5.3228   -4.2377   -0.6314 H       1  LIG1        0.0278
     42 H          -6.5943   -3.1463   -1.2469 H       1  LIG1        0.0278
     43 H           4.9656   -0.6447   -2.8333 H       1  LIG1        0.0280
     44 H           6.6807   -0.3503   -3.1369 H       1  LIG1        0.0280
     45 H           5.4834   -0.0230   -4.4062 H       1  LIG1        0.0280
     46 H           8.0357    3.5169   -4.1245 H       1  LIG1        0.0294
     47 H           7.2121    2.3232   -5.1400 H       1  LIG1        0.0294
     48 H           8.2717    1.7874   -3.8209 H       1  LIG1        0.0294
     49 H          -1.0559   -1.2336   -4.1165 H       1  LIG1        0.0309
     50 H          -2.7248   -1.8352   -4.3061 H       1  LIG1        0.0309
     51 H          -1.6727   -2.4512   -2.9946 H       1  LIG1        0.0309
@<TRIPOS>BOND
     1     1     4    2
     2     1     5    2
     3     1     9    1
     4     1    12    1
     5     2    15   ar
     6     2    26   ar
     7     3    10   ar
     8     3    20   ar
     9     6    19    2
    10     7    24    2
    11     8    11    1
    12     8    19   am
    13     9    20    1
    14    10    25   ar
    15    11    13   ar
    16    11    14   ar
    17    12    15   ar
    18    12    21   ar
    19    13    17   ar
    20    13    23    1
    21    14    18   ar
    22    14    24    1
    23    15    19    1
    24    16    17   ar
    25    16    18   ar
    26    16    27    1
    27    20    22   ar
    28    21    26   ar
    29    22    25   ar
    30    22    28    1
    31    24    30    1
    32    25    29    1
    33     8    31    1
    34     9    32    1
    35    17    33    1
    36    18    34    1
    37    21    35    1
    38    23    36    1
    39    23    37    1
    40    23    38    1
    41    26    39    1
    42    27    40    1
    43    27    41    1
    44    27    42    1
    45    28    43    1
    46    28    44    1
    47    28    45    1
    48    29    46    1
    49    29    47    1
    50    29    48    1
    51    30    49    1
    52    30    50    1
    53    30    51    1
@<TRIPOS>MOLECULE
9911482
 51 53 0 0 0
SMALL
GASTEIGER

@<TRIPOS>ATOM
      1 S           2.4252    1.5335   -0.9315 S.O2    1  LIG1        0.0758
      2 S          -0.9043    3.9368    0.1486 S.2     1  LIG1       -0.0902
      3 O           4.5133    2.3715    1.2672 O.2     1  LIG1       -0.3377
      4 O           3.5153    2.2747   -1.5279 O.2     1  LIG1       -0.1499
      5 O           1.6419    0.6236   -1.7447 O.2     1  LIG1       -0.1499
      6 O          -0.1336    0.2537    0.6216 O.2     1  LIG1       -0.2692
      7 O          -2.1890   -1.2487    2.8657 O.2     1  LIG1       -0.2923
      8 N          -1.9502    1.1327   -0.5002 N.am    1  LIG1       -0.2802
      9 N           2.9490    0.6808    0.4178 N.pl3   1  LIG1       -0.1831
     10 N           5.8343    2.4449    1.6649 N.ar    1  LIG1       -0.0810
     11 C          -2.8354    0.0301   -0.4326 C.ar    1  LIG1        0.0471
     12 C           1.2843    2.7458   -0.4556 C.ar    1  LIG1        0.1277
     13 C          -3.5622   -0.3098   -1.5994 C.ar    1  LIG1       -0.0283
     14 C          -3.0649   -0.7137    0.7463 C.ar    1  LIG1        0.0388
     15 C          -0.0292    2.4823   -0.1160 C.ar    1  LIG1        0.1007
     16 C          -4.6751   -2.1393   -0.4094 C.ar    1  LIG1       -0.0494
     17 C          -4.4781   -1.3823   -1.5639 C.ar    1  LIG1       -0.0541
     18 C          -3.9632   -1.7979    0.7401 C.ar    1  LIG1       -0.0466
     19 C          -0.6831    1.1939    0.0592 C.2     1  LIG1        0.2568
     20 C           4.2153    1.0971    0.8945 C.ar    1  LIG1        0.2399
     21 C           1.5804    4.1447   -0.4465 C.ar    1  LIG1       -0.0273
     22 C           5.3348    0.3049    1.0340 C.ar    1  LIG1        0.0350
     23 C          -3.3970    0.3664   -2.9380 C.3     1  LIG1       -0.0379
     24 C          -2.5600   -0.3582    2.1018 C.2     1  LIG1        0.1619
     25 C           6.3293    1.2137    1.4988 C.ar    1  LIG1        0.0854
     26 C           0.4754    4.9036   -0.1351 C.ar    1  LIG1       -0.0217
     27 C          -5.6720   -3.2594   -0.3750 C.3     1  LIG1       -0.0397
     28 C           5.5265   -1.1217    0.6886 C.3     1  LIG1       -0.0330
     29 C           7.7663    0.9500    1.7507 C.3     1  LIG1       -0.0188
     30 C          -2.6578    1.0738    2.5627 C.3     1  LIG1       -0.0013
     31 H          -2.1277    1.8308   -1.2102 H       1  LIG1        0.1552
     32 H           2.7957   -0.3164    0.2854 H       1  LIG1        0.1768
     33 H          -5.0348   -1.6376   -2.4669 H       1  LIG1        0.0623
     34 H          -4.1349   -2.3561    1.6611 H       1  LIG1        0.0628
     35 H           2.5511    4.5705   -0.6792 H       1  LIG1        0.0643
     36 H          -2.5796    1.0888   -2.9730 H       1  LIG1        0.0278
     37 H          -4.3219    0.8853   -3.2098 H       1  LIG1        0.0278
     38 H          -3.1750   -0.3855   -3.7047 H       1  LIG1        0.0278
     39 H           0.4110    5.9819   -0.0694 H       1  LIG1        0.0694
     40 H          -5.9924   -3.5411   -1.3832 H       1  LIG1        0.0278
     41 H          -6.5568   -2.9551    0.1933 H       1  LIG1        0.0278
     42 H          -5.2337   -4.1476    0.0917 H       1  LIG1        0.0278
     43 H           4.5804   -1.6229    0.4645 H       1  LIG1        0.0280
     44 H           6.0033   -1.6601    1.5131 H       1  LIG1        0.0280
     45 H           6.1682   -1.2091   -0.1949 H       1  LIG1        0.0280
     46 H           8.2418    1.7771    2.2877 H       1  LIG1        0.0294
     47 H           8.2948    0.8149    0.8011 H       1  LIG1        0.0294
     48 H           7.8964    0.0420    2.3481 H       1  LIG1        0.0294
     49 H          -3.2033    1.0974    3.5111 H       1  LIG1        0.0309
     50 H          -3.2125    1.6960    1.8566 H       1  LIG1        0.0309
     51 H          -1.6571    1.4845    2.7123 H       1  LIG1        0.0309
@<TRIPOS>BOND
     1     1     4    2
     2     1     5    2
     3     1     9    1
     4     1    12    1
     5     2    15   ar
     6     2    26   ar
     7     3    10   ar
     8     3    20   ar
     9     6    19    2
    10     7    24    2
    11     8    11    1
    12     8    19   am
    13     9    20    1
    14    10    25   ar
    15    11    13   ar
    16    11    14   ar
    17    12    15   ar
    18    12    21   ar
    19    13    17   ar
    20    13    23    1
    21    14    18   ar
    22    14    24    1
    23    15    19    1
    24    16    17   ar
    25    16    18   ar
    26    16    27    1
    27    20    22   ar
    28    21    26   ar
    29    22    25   ar
    30    22    28    1
    31    24    30    1
    32    25    29    1
    33     8    31    1
    34     9    32    1
    35    17    33    1
    36    18    34    1
    37    21    35    1
    38    23    36    1
    39    23    37    1
    40    23    38    1
    41    26    39    1
    42    27    40    1
    43    27    41    1
    44    27    42    1
    45    28    43    1
    46    28    44    1
    47    28    45    1
    48    29    46    1
    49    29    47    1
    50    29    48    1
    51    30    49    1
    52    30    50    1
    53    30    51    1
@<TRIPOS>MOLECULE
9911482
 51 53 0 0 0
SMALL
GASTEIGER

@<TRIPOS>ATOM
      1 S           2.4834    1.4846    0.5502 S.O2    1  LIG1        0.0758
      2 S          -0.8953    3.7842   -0.6891 S.2     1  LIG1       -0.0902
      3 O           2.7597   -1.2340    3.0117 O.2     1  LIG1       -0.3377
      4 O           3.6148    2.3236    0.8822 O.2     1  LIG1       -0.1499
      5 O           2.5525    0.5104   -0.5133 O.2     1  LIG1       -0.1499
      6 O          -0.1992    0.0286    0.1932 O.2     1  LIG1       -0.2692
      7 O          -1.8542    0.6305   -2.8141 O.2     1  LIG1       -0.2923
      8 N          -2.1514    1.1789   -0.1256 N.am    1  LIG1       -0.2802
      9 N           1.8528    0.7571    1.9426 N.pl3   1  LIG1       -0.1831
     10 N           3.7842   -1.6066    3.8575 N.ar    1  LIG1       -0.0810
     11 C          -3.0098    0.0657   -0.1975 C.ar    1  LIG1        0.0471
     12 C           1.2881    2.6320    0.0038 C.ar    1  LIG1        0.1277
     13 C          -3.9557   -0.1168    0.8302 C.ar    1  LIG1       -0.0283
     14 C          -2.9902   -0.8137   -1.3051 C.ar    1  LIG1        0.0388
     15 C          -0.0562    2.3573   -0.1991 C.ar    1  LIG1        0.1007
     16 C          -4.8119   -2.1020   -0.3117 C.ar    1  LIG1       -0.0494
     17 C          -4.8424   -1.2063    0.7603 C.ar    1  LIG1       -0.0541
     18 C          -3.8926   -1.8914   -1.3454 C.ar    1  LIG1       -0.0466
     19 C          -0.7695    1.0875   -0.0673 C.2     1  LIG1        0.2568
     20 C           2.8200    0.1041    2.7634 C.ar    1  LIG1        0.2399
     21 C           1.6139    4.0027   -0.2589 C.ar    1  LIG1       -0.0273
     22 C           3.8440    0.6518    3.5139 C.ar    1  LIG1        0.0350
     23 C          -4.0380    0.7626    2.0493 C.3     1  LIG1       -0.0379
     24 C          -2.1751   -0.5235   -2.5311 C.2     1  LIG1        0.1619
     25 C           4.4382   -0.4782    4.1484 C.ar    1  LIG1        0.0854
     26 C           0.5178    4.7339   -0.6470 C.ar    1  LIG1       -0.0217
     27 C          -5.7863   -3.2415   -0.3922 C.3     1  LIG1       -0.0397
     28 C           4.2638    2.0637    3.6822 C.3     1  LIG1       -0.0330
     29 C           5.6171   -0.5094    5.0484 C.3     1  LIG1       -0.0188
     30 C          -1.8450   -1.6562   -3.4708 C.3     1  LIG1       -0.0013
     31 H          -2.5625    2.0857    0.0520 H       1  LIG1        0.1552
     32 H           1.1585    0.0691    1.6132 H       1  LIG1        0.1768
     33 H          -5.5640   -1.3577    1.5634 H       1  LIG1        0.0623
     34 H          -3.9274   -2.5579   -2.2040 H       1  LIG1        0.0628
     35 H           2.6079    4.4277   -0.1639 H       1  LIG1        0.0643
     36 H          -3.2740    1.5437    2.0707 H       1  LIG1        0.0278
     37 H          -3.9008    0.1570    2.9517 H       1  LIG1        0.0278
     38 H          -5.0163    1.2514    2.0911 H       1  LIG1        0.0278
     39 H           0.4811    5.7833   -0.9080 H       1  LIG1        0.0694
     40 H          -6.3313   -3.3698    0.5487 H       1  LIG1        0.0278
     41 H          -5.2590   -4.1784   -0.5989 H       1  LIG1        0.0278
     42 H          -6.5155   -3.0559   -1.1871 H       1  LIG1        0.0278
     43 H           3.4486    2.7594    3.4627 H       1  LIG1        0.0280
     44 H           5.1142    2.2906    3.0311 H       1  LIG1        0.0280
     45 H           4.5788    2.2554    4.7137 H       1  LIG1        0.0280
     46 H           5.8364   -1.5247    5.3945 H       1  LIG1        0.0294
     47 H           5.4456    0.1169    5.9298 H       1  LIG1        0.0294
     48 H           6.5027   -0.1330    4.5260 H       1  LIG1        0.0294
     49 H          -0.9590   -1.3912   -4.0554 H       1  LIG1        0.0309
     50 H          -2.6826   -1.8207   -4.1552 H       1  LIG1        0.0309
     51 H          -1.6164   -2.5718   -2.9206 H       1  LIG1        0.0309
@<TRIPOS>BOND
     1     1     4    2
     2     1     5    2
     3     1     9    1
     4     1    12    1
     5     2    15   ar
     6     2    26   ar
     7     3    10   ar
     8     3    20   ar
     9     6    19    2
    10     7    24    2
    11     8    11    1
    12     8    19   am
    13     9    20    1
    14    10    25   ar
    15    11    13   ar
    16    11    14   ar
    17    12    15   ar
    18    12    21   ar
    19    13    17   ar
    20    13    23    1
    21    14    18   ar
    22    14    24    1
    23    15    19    1
    24    16    17   ar
    25    16    18   ar
    26    16    27    1
    27    20    22   ar
    28    21    26   ar
    29    22    25   ar
    30    22    28    1
    31    24    30    1
    32    25    29    1
    33     8    31    1
    34     9    32    1
    35    17    33    1
    36    18    34    1
    37    21    35    1
    38    23    36    1
    39    23    37    1
    40    23    38    1
    41    26    39    1
    42    27    40    1
    43    27    41    1
    44    27    42    1
    45    28    43    1
    46    28    44    1
    47    28    45    1
    48    29    46    1
    49    29    47    1
    50    29    48    1
    51    30    49    1
    52    30    50    1
    53    30    51    1
@<TRIPOS>MOLECULE
9911482
 51 53 0 0 0
SMALL
GASTEIGER

@<TRIPOS>ATOM
      1 S           2.3619    1.5257   -0.9003 S.O2    1  LIG1        0.0758
      2 S          -1.0295    3.9387   -0.0208 S.2     1  LIG1       -0.0902
      3 O           5.7830    1.3488   -1.9700 O.2     1  LIG1       -0.3377
      4 O           2.1307    1.3035   -2.3055 O.2     1  LIG1       -0.1499
      5 O           2.2062    0.5224    0.1277 O.2     1  LIG1       -0.1499
      6 O          -0.4124    0.3355   -1.3917 O.2     1  LIG1       -0.2692
      7 O          -4.0489   -0.1117    3.1133 O.2     1  LIG1       -0.2923
      8 N          -2.2251    1.2443   -0.3093 N.am    1  LIG1       -0.2802
      9 N           3.9102    2.1978   -0.6487 N.pl3   1  LIG1       -0.1831
     10 N           6.3592    1.5436   -3.2099 N.ar    1  LIG1       -0.0810
     11 C          -3.0217    0.0765   -0.3478 C.ar    1  LIG1        0.0471
     12 C           1.1805    2.7255   -0.4728 C.ar    1  LIG1        0.1277
     13 C          -3.4133   -0.4726   -1.5902 C.ar    1  LIG1       -0.0283
     14 C          -3.5321   -0.4822    0.8450 C.ar    1  LIG1        0.0388
     15 C          -0.1880    2.5051   -0.4743 C.ar    1  LIG1        0.1007
     16 C          -4.7852   -2.1405   -0.4379 C.ar    1  LIG1       -0.0494
     17 C          -4.2759   -1.5870   -1.6132 C.ar    1  LIG1       -0.0541
     18 C          -4.4045   -1.5845    0.7847 C.ar    1  LIG1       -0.0466
     19 C          -0.9214    1.2815   -0.8013 C.2     1  LIG1        0.2568
     20 C           4.7178    2.1805   -1.8232 C.ar    1  LIG1        0.2399
     21 C           1.5271    4.0478   -0.0537 C.ar    1  LIG1       -0.0273
     22 C           4.6232    3.0017   -2.9270 C.ar    1  LIG1        0.0350
     23 C          -3.0460    0.1088   -2.9324 C.3     1  LIG1       -0.0379
     24 C          -3.2000   -0.0150    2.2267 C.2     1  LIG1        0.1619
     25 C           5.6498    2.5195   -3.7874 C.ar    1  LIG1        0.0854
     26 C           0.4155    4.8153    0.2031 C.ar    1  LIG1       -0.0217
     27 C          -5.7189   -3.3139   -0.4742 C.3     1  LIG1       -0.0397
     28 C           3.6871    4.1150   -3.1962 C.3     1  LIG1       -0.0330
     29 C           5.9865    2.9795   -5.1557 C.3     1  LIG1       -0.0188
     30 C          -1.8416    0.5566    2.5378 C.3     1  LIG1       -0.0013
     31 H          -2.4187    1.9176    0.4205 H       1  LIG1        0.1552
     32 H           4.3444    1.6075    0.0664 H       1  LIG1        0.1768
     33 H          -4.5763   -2.0048   -2.5741 H       1  LIG1        0.0623
     34 H          -4.7898   -2.0179    1.7079 H       1  LIG1        0.0628
     35 H           2.5380    4.4264    0.0438 H       1  LIG1        0.0643
     36 H          -2.4830    1.0415   -2.8700 H       1  LIG1        0.0278
     37 H          -3.9598    0.3421   -3.4915 H       1  LIG1        0.0278
     38 H          -2.4553   -0.6127   -3.5056 H       1  LIG1        0.0278
     39 H           0.3827    5.8510    0.5157 H       1  LIG1        0.0694
     40 H          -6.0510   -3.5307   -1.4950 H       1  LIG1        0.0278
     41 H          -6.6122   -3.1053    0.1240 H       1  LIG1        0.0278
     42 H          -5.2211   -4.2048   -0.0794 H       1  LIG1        0.0278
     43 H           3.3115    4.5541   -2.2693 H       1  LIG1        0.0280
     44 H           2.8354    3.7710   -3.7900 H       1  LIG1        0.0280
     45 H           4.1884    4.9175   -3.7478 H       1  LIG1        0.0280
     46 H           6.6860    2.2985   -5.6510 H       1  LIG1        0.0294
     47 H           6.4430    3.9737   -5.1209 H       1  LIG1        0.0294
     48 H           5.0835    3.0373   -5.7728 H       1  LIG1        0.0294
     49 H          -1.5652    0.2770    3.5592 H       1  LIG1        0.0309
     50 H          -1.8795    1.6471    2.4774 H       1  LIG1        0.0309
     51 H          -1.0713    0.1551    1.8767 H       1  LIG1        0.0309
@<TRIPOS>BOND
     1     1     4    2
     2     1     5    2
     3     1     9    1
     4     1    12    1
     5     2    15   ar
     6     2    26   ar
     7     3    10   ar
     8     3    20   ar
     9     6    19    2
    10     7    24    2
    11     8    11    1
    12     8    19   am
    13     9    20    1
    14    10    25   ar
    15    11    13   ar
    16    11    14   ar
    17    12    15   ar
    18    12    21   ar
    19    13    17   ar
    20    13    23    1
    21    14    18   ar
    22    14    24    1
    23    15    19    1
    24    16    17   ar
    25    16    18   ar
    26    16    27    1
    27    20    22   ar
    28    21    26   ar
    29    22    25   ar
    30    22    28    1
    31    24    30    1
    32    25    29    1
    33     8    31    1
    34     9    32    1
    35    17    33    1
    36    18    34    1
    37    21    35    1
    38    23    36    1
    39    23    37    1
    40    23    38    1
    41    26    39    1
    42    27    40    1
    43    27    41    1
    44    27    42    1
    45    28    43    1
    46    28    44    1
    47    28    45    1
    48    29    46    1
    49    29    47    1
    50    29    48    1
    51    30    49    1
    52    30    50    1
    53    30    51    1
@<TRIPOS>MOLECULE
9911482
 51 53 0 0 0
SMALL
GASTEIGER

@<TRIPOS>ATOM
      1 S           2.2784    1.4589    1.0161 S.O2    1  LIG1        0.0758
      2 S          -0.3848    3.9910   -1.1020 S.2     1  LIG1       -0.0902
      3 O           4.9390    1.0144   -0.8539 O.2     1  LIG1       -0.3377
      4 O           1.3354    0.8178    1.9048 O.2     1  LIG1       -0.1499
      5 O           3.4516    2.1319    1.5318 O.2     1  LIG1       -0.1499
      6 O           0.0360    0.2003   -0.7486 O.2     1  LIG1       -0.2692
      7 O          -3.3674    0.9698   -2.9758 O.2     1  LIG1       -0.2923
      8 N          -1.9585    1.1999   -0.6852 N.am    1  LIG1       -0.2802
      9 N           2.6855    0.3503   -0.1832 N.pl3   1  LIG1       -0.1831
     10 N           6.2085    0.4695   -0.8920 N.ar    1  LIG1       -0.0810
     11 C          -2.8992    2.2078   -0.3890 C.ar    1  LIG1        0.0471
     12 C           1.3482    2.7199    0.2725 C.ar    1  LIG1        0.1277
     13 C          -3.0307    2.7262    0.9124 C.ar    1  LIG1       -0.0283
     14 C          -3.7173    2.7035   -1.4260 C.ar    1  LIG1        0.0388
     15 C           0.1274    2.5227   -0.3563 C.ar    1  LIG1        0.1007
     16 C          -4.7007    4.3213    0.0921 C.ar    1  LIG1       -0.0494
     17 C          -3.9176    3.7974    1.1287 C.ar    1  LIG1       -0.0541
     18 C          -4.6008    3.7630   -1.1861 C.ar    1  LIG1       -0.0466
     19 C          -0.5777    1.2579   -0.5758 C.2     1  LIG1        0.2568
     20 C           4.0736    0.1223   -0.3031 C.ar    1  LIG1        0.2399
     21 C           1.7768    4.0845    0.2518 C.ar    1  LIG1       -0.0273
     22 C           4.7570   -1.0137    0.0691 C.ar    1  LIG1        0.0350
     23 C          -2.2885    2.1785    2.1019 C.3     1  LIG1       -0.0379
     24 C          -3.5638    2.1720   -2.8071 C.2     1  LIG1        0.1619
     25 C           6.0979   -0.7368   -0.3244 C.ar    1  LIG1        0.0854
     26 C           0.9049    4.8865   -0.4430 C.ar    1  LIG1       -0.0217
     27 C          -5.6030    5.4969    0.3310 C.3     1  LIG1       -0.0397
     28 C           4.2622   -2.2104    0.7852 C.3     1  LIG1       -0.0330
     29 C           7.3019   -1.5821   -0.1470 C.3     1  LIG1       -0.0188
     30 C          -3.6170    3.1414   -3.9583 C.3     1  LIG1       -0.0013
     31 H          -2.2334    0.5361   -1.4123 H       1  LIG1        0.1552
     32 H           2.0766   -0.4638   -0.0815 H       1  LIG1        0.1768
     33 H          -4.0043    4.2205    2.1298 H       1  LIG1        0.0623
     34 H          -5.2119    4.1669   -1.9902 H       1  LIG1        0.0628
     35 H           2.6900    4.4515    0.7085 H       1  LIG1        0.0643
     36 H          -1.8959    1.1735    1.9221 H       1  LIG1        0.0278
     37 H          -2.9667    2.0926    2.9589 H       1  LIG1        0.0278
     38 H          -1.4617    2.8417    2.3721 H       1  LIG1        0.0278
     39 H           0.9856    5.9500   -0.6246 H       1  LIG1        0.0694
     40 H          -5.7836    5.6520    1.3995 H       1  LIG1        0.0278
     41 H          -6.5751    5.3385   -0.1474 H       1  LIG1        0.0278
     42 H          -5.1470    6.4046   -0.0774 H       1  LIG1        0.0278
     43 H           3.1764   -2.1936    0.9128 H       1  LIG1        0.0280
     44 H           4.7122   -2.2588    1.7831 H       1  LIG1        0.0280
     45 H           4.5258   -3.1244    0.2447 H       1  LIG1        0.0280
     46 H           8.1247   -1.2502   -0.7889 H       1  LIG1        0.0294
     47 H           7.0844   -2.6255   -0.3962 H       1  LIG1        0.0294
     48 H           7.6415   -1.5391    0.8926 H       1  LIG1        0.0294
     49 H          -3.0044    2.7528   -4.7774 H       1  LIG1        0.0309
     50 H          -3.1966    4.1098   -3.6704 H       1  LIG1        0.0309
     51 H          -4.6475    3.2607   -4.2993 H       1  LIG1        0.0309
@<TRIPOS>BOND
     1     1     4    2
     2     1     5    2
     3     1     9    1
     4     1    12    1
     5     2    15   ar
     6     2    26   ar
     7     3    10   ar
     8     3    20   ar
     9     6    19    2
    10     7    24    2
    11     8    11    1
    12     8    19   am
    13     9    20    1
    14    10    25   ar
    15    11    13   ar
    16    11    14   ar
    17    12    15   ar
    18    12    21   ar
    19    13    17   ar
    20    13    23    1
    21    14    18   ar
    22    14    24    1
    23    15    19    1
    24    16    17   ar
    25    16    18   ar
    26    16    27    1
    27    20    22   ar
    28    21    26   ar
    29    22    25   ar
    30    22    28    1
    31    24    30    1
    32    25    29    1
    33     8    31    1
    34     9    32    1
    35    17    33    1
    36    18    34    1
    37    21    35    1
    38    23    36    1
    39    23    37    1
    40    23    38    1
    41    26    39    1
    42    27    40    1
    43    27    41    1
    44    27    42    1
    45    28    43    1
    46    28    44    1
    47    28    45    1
    48    29    46    1
    49    29    47    1
    50    29    48    1
    51    30    49    1
    52    30    50    1
    53    30    51    1
@<TRIPOS>MOLECULE
9911482
 51 53 0 0 0
SMALL
GASTEIGER

@<TRIPOS>ATOM
      1 S           2.1620    1.0714    1.1278 S.O2    1  LIG1        0.0758
      2 S          -0.1033    3.9431   -1.0462 S.2     1  LIG1       -0.0902
      3 O           3.5392    0.7569   -2.0952 O.2     1  LIG1       -0.3377
      4 O           1.0768    0.5807    1.9503 O.2     1  LIG1       -0.1499
      5 O           3.3801    1.5774    1.7218 O.2     1  LIG1       -0.1499
      6 O           0.0927    0.1796   -1.0319 O.2     1  LIG1       -0.2692
      7 O          -3.3026    1.0453   -3.0646 O.2     1  LIG1       -0.2923
      8 N          -1.8795    1.2070   -0.8011 N.am    1  LIG1       -0.2802
      9 N           2.5175   -0.1079   -0.0400 N.pl3   1  LIG1       -0.1831
     10 N           4.8068    0.9373   -2.6197 N.ar    1  LIG1       -0.0810
     11 C          -2.7849    2.2352   -0.4693 C.ar    1  LIG1        0.0471
     12 C           1.4460    2.4574    0.3479 C.ar    1  LIG1        0.1277
     13 C          -2.9044    2.7233    0.8444 C.ar    1  LIG1       -0.0283
     14 C          -3.6066    2.7630   -1.4878 C.ar    1  LIG1        0.0388
     15 C           0.2591    2.4070   -0.3675 C.ar    1  LIG1        0.1007
     16 C          -4.5759    4.3443    0.0751 C.ar    1  LIG1       -0.0494
     17 C          -3.7861    3.7932    1.0924 C.ar    1  LIG1       -0.0541
     18 C          -4.4842    3.8196   -1.2172 C.ar    1  LIG1       -0.0466
     19 C          -0.5007    1.2149   -0.7201 C.2     1  LIG1        0.2568
     20 C           3.6347    0.2343   -0.8453 C.ar    1  LIG1        0.2399
     21 C           1.9973    3.7749    0.4091 C.ar    1  LIG1       -0.0273
     22 C           4.9569   -0.0057   -0.5447 C.ar    1  LIG1        0.0350
     23 C          -2.1772    2.1334    2.0231 C.3     1  LIG1       -0.0379
     24 C          -3.4842    2.2473   -2.8783 C.2     1  LIG1        0.1619
     25 C           5.6503    0.4639   -1.6941 C.ar    1  LIG1        0.0854
     26 C           1.2401    4.6815   -0.2968 C.ar    1  LIG1       -0.0217
     27 C          -5.4895    5.5028    0.3518 C.3     1  LIG1       -0.0397
     28 C           5.5353   -0.6423    0.6604 C.3     1  LIG1       -0.0330
     29 C           7.1106    0.4453   -1.9490 C.3     1  LIG1       -0.0188
     30 C          -3.5525    3.2290   -4.0168 C.3     1  LIG1       -0.0013
     31 H          -2.1878    0.5730   -1.5425 H       1  LIG1        0.1552
     32 H           1.6657   -0.2334   -0.6097 H       1  LIG1        0.1768
     33 H          -3.8704    4.1867    2.1058 H       1  LIG1        0.0623
     34 H          -5.1045    4.2395   -2.0055 H       1  LIG1        0.0628
     35 H           2.9076    4.0409    0.9354 H       1  LIG1        0.0643
     36 H          -1.7531    1.1503    1.8043 H       1  LIG1        0.0278
     37 H          -2.8755    1.9866    2.8557 H       1  LIG1        0.0278
     38 H          -1.3766    2.8035    2.3495 H       1  LIG1        0.0278
     39 H           1.4237    5.7398   -0.4281 H       1  LIG1        0.0694
     40 H          -5.6442    5.6433    1.4265 H       1  LIG1        0.0278
     41 H          -6.4713    5.3326   -0.1022 H       1  LIG1        0.0278
     42 H          -5.0599    6.4223   -0.0584 H       1  LIG1        0.0278
     43 H           4.7619   -0.9840    1.3548 H       1  LIG1        0.0280
     44 H           6.1832    0.0612    1.1920 H       1  LIG1        0.0280
     45 H           6.1331   -1.5154    0.3779 H       1  LIG1        0.0280
     46 H           7.3730    1.0122   -2.8480 H       1  LIG1        0.0294
     47 H           7.4575   -0.5845   -2.0838 H       1  LIG1        0.0294
     48 H           7.6540    0.8824   -1.1051 H       1  LIG1        0.0294
     49 H          -2.9549    2.8460   -4.8499 H       1  LIG1        0.0309
     50 H          -3.1232    4.1919   -3.7251 H       1  LIG1        0.0309
     51 H          -4.5880    3.3554   -4.3391 H       1  LIG1        0.0309
@<TRIPOS>BOND
     1     1     4    2
     2     1     5    2
     3     1     9    1
     4     1    12    1
     5     2    15   ar
     6     2    26   ar
     7     3    10   ar
     8     3    20   ar
     9     6    19    2
    10     7    24    2
    11     8    11    1
    12     8    19   am
    13     9    20    1
    14    10    25   ar
    15    11    13   ar
    16    11    14   ar
    17    12    15   ar
    18    12    21   ar
    19    13    17   ar
    20    13    23    1
    21    14    18   ar
    22    14    24    1
    23    15    19    1
    24    16    17   ar
    25    16    18   ar
    26    16    27    1
    27    20    22   ar
    28    21    26   ar
    29    22    25   ar
    30    22    28    1
    31    24    30    1
    32    25    29    1
    33     8    31    1
    34     9    32    1
    35    17    33    1
    36    18    34    1
    37    21    35    1
    38    23    36    1
    39    23    37    1
    40    23    38    1
    41    26    39    1
    42    27    40    1
    43    27    41    1
    44    27    42    1
    45    28    43    1
    46    28    44    1
    47    28    45    1
    48    29    46    1
    49    29    47    1
    50    29    48    1
    51    30    49    1
    52    30    50    1
    53    30    51    1
@<TRIPOS>MOLECULE
9911482
 51 53 0 0 0
SMALL
GASTEIGER

@<TRIPOS>ATOM
      1 S          -1.9490    3.9478   -1.4543 S.O2    1  LIG1        0.0758
      2 S           1.5549    2.2847    0.3123 S.2     1  LIG1       -0.0902
      3 O          -4.2669    6.4735   -1.4196 O.2     1  LIG1       -0.3377
      4 O          -2.8584    3.5952   -0.3843 O.2     1  LIG1       -0.1499
      5 O          -1.9847    3.3182   -2.7537 O.2     1  LIG1       -0.1499
      6 O          -0.1928   -0.1112   -0.1155 O.2     1  LIG1       -0.2692
      7 O          -1.1956   -0.0659   -2.7935 O.2     1  LIG1       -0.2923
      8 N          -2.1375    1.0667   -0.3772 N.am    1  LIG1       -0.2802
      9 N          -1.9882    5.6274   -1.7454 N.pl3   1  LIG1       -0.1831
     10 N          -4.9996    7.1297   -0.4482 N.ar    1  LIG1       -0.0810
     11 C          -2.9821   -0.0586   -0.3976 C.ar    1  LIG1        0.0471
     12 C          -0.4042    3.5154   -0.7936 C.ar    1  LIG1        0.1277
     13 C          -3.8662   -0.2339    0.6906 C.ar    1  LIG1       -0.0283
     14 C          -3.0586   -0.9104   -1.5255 C.ar    1  LIG1        0.0388
     15 C          -0.0476    2.2523   -0.3333 C.ar    1  LIG1        0.1007
     16 C          -4.8672   -2.1515   -0.4335 C.ar    1  LIG1       -0.0494
     17 C          -4.7948   -1.2858    0.6579 C.ar    1  LIG1       -0.0541
     18 C          -4.0003   -1.9566   -1.5172 C.ar    1  LIG1       -0.0466
     19 C          -0.7567    0.9677   -0.3027 C.2     1  LIG1        0.2568
     20 C          -3.0001    6.2681   -0.9737 C.ar    1  LIG1        0.2399
     21 C           0.6425    4.4777   -0.6328 C.ar    1  LIG1       -0.0273
     22 C          -2.8534    6.8275    0.2760 C.ar    1  LIG1        0.0350
     23 C          -3.8436    0.6152    1.9366 C.3     1  LIG1       -0.0379
     24 C          -2.2710   -0.6584   -2.7889 C.2     1  LIG1        0.1619
     25 C          -4.1487    7.3426    0.5619 C.ar    1  LIG1        0.0854
     26 C           1.7419    3.9486   -0.0020 C.ar    1  LIG1       -0.0217
     27 C          -5.8720   -3.2658   -0.4612 C.3     1  LIG1       -0.0397
     28 C          -1.6552    6.9239    1.1356 C.3     1  LIG1       -0.0330
     29 C          -4.5894    8.0637    1.7796 C.3     1  LIG1       -0.0188
     30 C          -2.8604   -1.1089   -4.1047 C.3     1  LIG1       -0.0013
     31 H          -2.5314    1.9051    0.0416 H       1  LIG1        0.1552
     32 H          -2.2388    5.6860   -2.7377 H       1  LIG1        0.1768
     33 H          -5.4654   -1.4292    1.5046 H       1  LIG1        0.0623
     34 H          -4.0867   -2.6360   -2.3606 H       1  LIG1        0.0628
     35 H           0.5850    5.5164   -0.9353 H       1  LIG1        0.0643
     36 H          -3.0834    1.3994    1.9247 H       1  LIG1        0.0278
     37 H          -3.6318   -0.0150    2.8074 H       1  LIG1        0.0278
     38 H          -4.8155    1.1000    2.0750 H       1  LIG1        0.0278
     39 H           2.6550    4.4567    0.2777 H       1  LIG1        0.0694
     40 H          -6.4531   -3.3057    0.4663 H       1  LIG1        0.0278
     41 H          -5.3650   -4.2285   -0.5797 H       1  LIG1        0.0278
     42 H          -6.5725   -3.1202   -1.2897 H       1  LIG1        0.0278
     43 H          -0.7734    6.4969    0.6584 H       1  LIG1        0.0280
     44 H          -1.8155    6.3992    2.0823 H       1  LIG1        0.0280
     45 H          -1.4301    7.9728    1.3547 H       1  LIG1        0.0280
     46 H          -5.6516    8.3236    1.7379 H       1  LIG1        0.0294
     47 H          -4.0177    8.9903    1.8961 H       1  LIG1        0.0294
     48 H          -4.4255    7.4464    2.6690 H       1  LIG1        0.0294
     49 H          -2.1848   -0.8135   -4.9151 H       1  LIG1        0.0309
     50 H          -3.8215   -0.6157   -4.2719 H       1  LIG1        0.0309
     51 H          -2.9590   -2.1951   -4.1470 H       1  LIG1        0.0309
@<TRIPOS>BOND
     1     1     4    2
     2     1     5    2
     3     1     9    1
     4     1    12    1
     5     2    15   ar
     6     2    26   ar
     7     3    10   ar
     8     3    20   ar
     9     6    19    2
    10     7    24    2
    11     8    11    1
    12     8    19   am
    13     9    20    1
    14    10    25   ar
    15    11    13   ar
    16    11    14   ar
    17    12    15   ar
    18    12    21   ar
    19    13    17   ar
    20    13    23    1
    21    14    18   ar
    22    14    24    1
    23    15    19    1
    24    16    17   ar
    25    16    18   ar
    26    16    27    1
    27    20    22   ar
    28    21    26   ar
    29    22    25   ar
    30    22    28    1
    31    24    30    1
    32    25    29    1
    33     8    31    1
    34     9    32    1
    35    17    33    1
    36    18    34    1
    37    21    35    1
    38    23    36    1
    39    23    37    1
    40    23    38    1
    41    26    39    1
    42    27    40    1
    43    27    41    1
    44    27    42    1
    45    28    43    1
    46    28    44    1
    47    28    45    1
    48    29    46    1
    49    29    47    1
    50    29    48    1
    51    30    49    1
    52    30    50    1
    53    30    51    1
@<TRIPOS>MOLECULE
9911482
 51 53 0 0 0
SMALL
GASTEIGER

@<TRIPOS>ATOM
      1 S           2.0456    1.6615   -2.1227 S.O2    1  LIG1        0.0758
      2 S          -0.7146    3.5576    0.5374 S.2     1  LIG1       -0.0902
      3 O           3.4275    1.2691   -5.1278 O.2     1  LIG1       -0.3377
      4 O           1.1734    0.6636   -2.6880 O.2     1  LIG1       -0.1499
      5 O           3.2536    1.3875   -1.3799 O.2     1  LIG1       -0.1499
      6 O          -0.3465   -0.0952   -0.7047 O.2     1  LIG1       -0.2692
      7 O          -2.7856    1.1464    2.3093 O.2     1  LIG1       -0.2923
      8 N          -2.2276    1.1404   -0.2442 N.am    1  LIG1       -0.2802
      9 N           2.3809    2.7110   -3.4372 N.pl3   1  LIG1       -0.1831
     10 N           4.6827    1.0551   -5.6651 N.ar    1  LIG1       -0.0810
     11 C          -3.0857    0.0157   -0.3076 C.ar    1  LIG1        0.0471
     12 C           1.0855    2.6067   -1.0231 C.ar    1  LIG1        0.1277
     13 C          -3.4885   -0.4903   -1.5587 C.ar    1  LIG1       -0.0283
     14 C          -3.5824   -0.5593    0.8816 C.ar    1  LIG1        0.0388
     15 C          -0.1097    2.2493   -0.4183 C.ar    1  LIG1        0.1007
     16 C          -4.8746   -2.1568   -0.4245 C.ar    1  LIG1       -0.0494
     17 C          -4.3823   -1.5757   -1.5974 C.ar    1  LIG1       -0.0541
     18 C          -4.4630   -1.6490    0.8128 C.ar    1  LIG1       -0.0466
     19 C          -0.8644    1.0020   -0.4871 C.2     1  LIG1        0.2568
     20 C           3.5052    2.2222   -4.1634 C.ar    1  LIG1        0.2399
     21 C           1.5088    3.9308   -0.6588 C.ar    1  LIG1       -0.0273
     22 C           4.7946    2.6922   -4.0729 C.ar    1  LIG1        0.0350
     23 C          -3.0934    0.1264   -2.8742 C.3     1  LIG1       -0.0379
     24 C          -3.1665   -0.0199    2.2126 C.2     1  LIG1        0.1619
     25 C           5.4968    1.9060   -5.0282 C.ar    1  LIG1        0.0854
     26 C           0.6150    4.5564    0.1770 C.ar    1  LIG1       -0.0217
     27 C          -5.8328   -3.3110   -0.4800 C.3     1  LIG1       -0.0397
     28 C           5.3298    3.7693   -3.2147 C.3     1  LIG1       -0.0330
     29 C           6.9361    1.9590   -5.3753 C.3     1  LIG1       -0.0188
     30 C          -3.2433   -0.9167    3.4197 C.3     1  LIG1       -0.0013
     31 H          -2.3658    1.7170    0.5920 H       1  LIG1        0.1552
     32 H           1.5578    2.5622   -4.0317 H       1  LIG1        0.1768
     33 H          -4.7104   -1.9570   -2.5639 H       1  LIG1        0.0623
     34 H          -4.8549   -2.1080    1.7170 H       1  LIG1        0.0628
     35 H           2.4244    4.4005   -1.0035 H       1  LIG1        0.0643
     36 H          -2.3387    0.9100   -2.7796 H       1  LIG1        0.0278
     37 H          -3.9743    0.5772   -3.3454 H       1  LIG1        0.0278
     38 H          -2.6883   -0.6394   -3.5438 H       1  LIG1        0.0278
     39 H           0.6803    5.5530    0.5951 H       1  LIG1        0.0694
     40 H          -6.1563   -3.5162   -1.5056 H       1  LIG1        0.0278
     41 H          -6.7275   -3.0864    0.1100 H       1  LIG1        0.0278
     42 H          -5.3575   -4.2140   -0.0844 H       1  LIG1        0.0278
     43 H           4.5548    4.2094   -2.5795 H       1  LIG1        0.0280
     44 H           5.7469    4.5722   -3.8325 H       1  LIG1        0.0280
     45 H           6.1223    3.3871   -2.5645 H       1  LIG1        0.0280
     46 H           7.2124    1.1656   -6.0775 H       1  LIG1        0.0294
     47 H           7.5511    1.8433   -4.4773 H       1  LIG1        0.0294
     48 H           7.1781    2.9210   -5.8383 H       1  LIG1        0.0294
     49 H          -2.5955   -0.5162    4.2051 H       1  LIG1        0.0309
     50 H          -2.8856   -1.9227    3.1818 H       1  LIG1        0.0309
     51 H          -4.2714   -0.9506    3.7908 H       1  LIG1        0.0309
@<TRIPOS>BOND
     1     1     4    2
     2     1     5    2
     3     1     9    1
     4     1    12    1
     5     2    15   ar
     6     2    26   ar
     7     3    10   ar
     8     3    20   ar
     9     6    19    2
    10     7    24    2
    11     8    11    1
    12     8    19   am
    13     9    20    1
    14    10    25   ar
    15    11    13   ar
    16    11    14   ar
    17    12    15   ar
    18    12    21   ar
    19    13    17   ar
    20    13    23    1
    21    14    18   ar
    22    14    24    1
    23    15    19    1
    24    16    17   ar
    25    16    18   ar
    26    16    27    1
    27    20    22   ar
    28    21    26   ar
    29    22    25   ar
    30    22    28    1
    31    24    30    1
    32    25    29    1
    33     8    31    1
    34     9    32    1
    35    17    33    1
    36    18    34    1
    37    21    35    1
    38    23    36    1
    39    23    37    1
    40    23    38    1
    41    26    39    1
    42    27    40    1
    43    27    41    1
    44    27    42    1
    45    28    43    1
    46    28    44    1
    47    28    45    1
    48    29    46    1
    49    29    47    1
    50    29    48    1
    51    30    49    1
    52    30    50    1
    53    30    51    1
@<TRIPOS>MOLECULE
9911482
 51 53 0 0 0
SMALL
GASTEIGER

@<TRIPOS>ATOM
      1 S          -1.7730    3.7931    1.2964 S.O2    1  LIG1        0.0758
      2 S           1.4184    2.2897   -1.0604 S.2     1  LIG1       -0.0902
      3 O          -2.8065    5.7998    3.9918 O.2     1  LIG1       -0.3377
      4 O          -1.6135    2.8635    2.3898 O.2     1  LIG1       -0.1499
      5 O          -2.8534    3.6903    0.3368 O.2     1  LIG1       -0.1499
      6 O          -0.1988   -0.1061    0.0478 O.2     1  LIG1       -0.2692
      7 O          -3.4323   -0.4744   -3.9514 O.2     1  LIG1       -0.2923
      8 N          -2.1456    1.0685   -0.3122 N.am    1  LIG1       -0.2802
      9 N          -1.7465    5.4041    1.8251 N.pl3   1  LIG1       -0.1831
     10 N          -2.4647    5.8251    5.3293 N.ar    1  LIG1       -0.0810
     11 C          -2.9973   -0.0527   -0.3958 C.ar    1  LIG1        0.0471
     12 C          -0.3860    3.4892    0.3039 C.ar    1  LIG1        0.1277
     13 C          -3.2706   -0.7965    0.7766 C.ar    1  LIG1       -0.0283
     14 C          -3.6417   -0.4022   -1.6038 C.ar    1  LIG1        0.0388
     15 C          -0.0674    2.2399   -0.2028 C.ar    1  LIG1        0.1007
     16 C          -4.8234   -2.2170   -0.4701 C.ar    1  LIG1       -0.0494
     17 C          -4.1871   -1.8632    0.7203 C.ar    1  LIG1       -0.0541
     18 C          -4.5318   -1.4923   -1.6286 C.ar    1  LIG1       -0.0466
     19 C          -0.7751    0.9668   -0.1104 C.2     1  LIG1        0.2568
     20 C          -1.7103    5.5070    3.2457 C.ar    1  LIG1        0.2399
     21 C           0.5468    4.4971   -0.0857 C.ar    1  LIG1       -0.0273
     22 C          -0.6072    5.4094    4.0656 C.ar    1  LIG1        0.0350
     23 C          -2.7394   -0.4163    2.1368 C.3     1  LIG1       -0.0379
     24 C          -3.3902    0.2253   -2.9376 C.2     1  LIG1        0.1619
     25 C          -1.1504    5.5800    5.3709 C.ar    1  LIG1        0.0854
     26 C           1.5798    3.9757   -0.8310 C.ar    1  LIG1       -0.0217
     27 C          -5.7908   -3.3616   -0.5249 C.3     1  LIG1       -0.0397
     28 C           0.8130    5.1903    3.7124 C.3     1  LIG1       -0.0330
     29 C          -0.4407    5.5379    6.6712 C.3     1  LIG1       -0.0188
     30 C          -3.1267    1.7006   -3.0548 C.3     1  LIG1       -0.0013
     31 H          -2.4877    1.9373   -0.7060 H       1  LIG1        0.1552
     32 H          -2.6259    5.8076    1.4896 H       1  LIG1        0.1768
     33 H          -4.4172   -2.4178    1.6308 H       1  LIG1        0.0623
     34 H          -5.0037   -1.7813   -2.5662 H       1  LIG1        0.0628
     35 H           0.4798    5.5472    0.1752 H       1  LIG1        0.0643
     36 H          -1.6989   -0.0929    2.1102 H       1  LIG1        0.0278
     37 H          -2.7727   -1.2721    2.8216 H       1  LIG1        0.0278
     38 H          -3.3537    0.3843    2.5602 H       1  LIG1        0.0278
     39 H           2.4306    4.4997   -1.2479 H       1  LIG1        0.0694
     40 H          -6.0129   -3.7479    0.4756 H       1  LIG1        0.0278
     41 H          -5.3744   -4.1785   -1.1217 H       1  LIG1        0.0278
     42 H          -6.7368   -3.0359   -0.9699 H       1  LIG1        0.0278
     43 H           1.0029    5.4019    2.6578 H       1  LIG1        0.0280
     44 H           1.1059    4.1569    3.9173 H       1  LIG1        0.0280
     45 H           1.4589    5.8548    4.2951 H       1  LIG1        0.0280
     46 H          -1.1403    5.4794    7.5118 H       1  LIG1        0.0294
     47 H           0.1717    6.4364    6.7985 H       1  LIG1        0.0294
     48 H           0.2162    4.6631    6.7228 H       1  LIG1        0.0294
     49 H          -3.4134    2.0311   -4.0591 H       1  LIG1        0.0309
     50 H          -2.0634    1.9066   -2.9163 H       1  LIG1        0.0309
     51 H          -3.7420    2.2642   -2.3486 H       1  LIG1        0.0309
@<TRIPOS>BOND
     1     1     4    2
     2     1     5    2
     3     1     9    1
     4     1    12    1
     5     2    15   ar
     6     2    26   ar
     7     3    10   ar
     8     3    20   ar
     9     6    19    2
    10     7    24    2
    11     8    11    1
    12     8    19   am
    13     9    20    1
    14    10    25   ar
    15    11    13   ar
    16    11    14   ar
    17    12    15   ar
    18    12    21   ar
    19    13    17   ar
    20    13    23    1
    21    14    18   ar
    22    14    24    1
    23    15    19    1
    24    16    17   ar
    25    16    18   ar
    26    16    27    1
    27    20    22   ar
    28    21    26   ar
    29    22    25   ar
    30    22    28    1
    31    24    30    1
    32    25    29    1
    33     8    31    1
    34     9    32    1
    35    17    33    1
    36    18    34    1
    37    21    35    1
    38    23    36    1
    39    23    37    1
    40    23    38    1
    41    26    39    1
    42    27    40    1
    43    27    41    1
    44    27    42    1
    45    28    43    1
    46    28    44    1
    47    28    45    1
    48    29    46    1
    49    29    47    1
    50    29    48    1
    51    30    49    1
    52    30    50    1
    53    30    51    1
@<TRIPOS>MOLECULE
9911482
 51 53 0 0 0
SMALL
GASTEIGER

@<TRIPOS>ATOM
      1 S           2.4094    1.3604   -0.6153 S.O2    1  LIG1        0.0758
      2 S          -1.0209    3.8817   -0.3166 S.2     1  LIG1       -0.0902
      3 O           0.9944    1.7075   -3.5722 O.2     1  LIG1       -0.3377
      4 O           1.8654    0.1951    0.0406 O.2     1  LIG1       -0.1499
      5 O           3.5739    2.0101   -0.0385 O.2     1  LIG1       -0.1499
      6 O          -0.5392    0.1754   -1.3041 O.2     1  LIG1       -0.2692
      7 O          -2.6916    1.1815    2.4153 O.2     1  LIG1       -0.2923
      8 N          -2.2210    1.1723   -0.1035 N.am    1  LIG1       -0.2802
      9 N           2.8692    0.9398   -2.1829 N.pl3   1  LIG1       -0.1831
     10 N           0.0685    1.1636   -4.4440 N.ar    1  LIG1       -0.0810
     11 C          -3.1327    0.0915   -0.1899 C.ar    1  LIG1        0.0471
     12 C           1.1839    2.5849   -0.5395 C.ar    1  LIG1        0.1277
     13 C          -3.5599   -0.4045   -1.4406 C.ar    1  LIG1       -0.0283
     14 C          -3.6605   -0.4634    1.0013 C.ar    1  LIG1        0.0388
     15 C          -0.1876    2.3814   -0.5186 C.ar    1  LIG1        0.1007
     16 C          -4.9046   -2.1045   -0.3075 C.ar    1  LIG1       -0.0494
     17 C          -4.4321   -1.5084   -1.4778 C.ar    1  LIG1       -0.0541
     18 C          -4.5246   -1.5689    0.9275 C.ar    1  LIG1       -0.0466
     19 C          -0.9626    1.1536   -0.6925 C.2     1  LIG1        0.2568
     20 C           1.7894    0.7218   -3.0749 C.ar    1  LIG1        0.2399
     21 C           1.5296    3.9744   -0.4147 C.ar    1  LIG1       -0.0273
     22 C           1.4124   -0.4894   -3.6118 C.ar    1  LIG1        0.0350
     23 C          -3.2839    0.2751   -2.7580 C.3     1  LIG1       -0.0379
     24 C          -3.3001    0.1128    2.3421 C.2     1  LIG1        0.1619
     25 C           0.3011   -0.1545   -4.4355 C.ar    1  LIG1        0.0854
     26 C           0.4249    4.7799   -0.2798 C.ar    1  LIG1       -0.0217
     27 C          -5.8209   -3.2919   -0.3646 C.3     1  LIG1       -0.0397
     28 C           1.9309   -1.8456   -3.3250 C.3     1  LIG1       -0.0330
     29 C          -0.5766   -1.0768   -5.1930 C.3     1  LIG1       -0.0188
     30 C          -3.7239   -0.6103    3.5945 C.3     1  LIG1       -0.0013
     31 H          -2.2304    1.6829    0.7832 H       1  LIG1        0.1552
     32 H           3.4855    0.1345   -2.0957 H       1  LIG1        0.1768
     33 H          -4.7649   -1.8872   -2.4436 H       1  LIG1        0.0623
     34 H          -4.9253   -2.0308    1.8261 H       1  LIG1        0.0628
     35 H           2.5444    4.3557   -0.3971 H       1  LIG1        0.0643
     36 H          -2.4650    0.9929   -2.7313 H       1  LIG1        0.0278
     37 H          -4.1792    0.8227   -3.0727 H       1  LIG1        0.0278
     38 H          -3.0436   -0.4676   -3.5251 H       1  LIG1        0.0278
     39 H           0.3999    5.8534   -0.1528 H       1  LIG1        0.0694
     40 H          -6.1035   -3.5329   -1.3947 H       1  LIG1        0.0278
     41 H          -6.7405   -3.0880    0.1933 H       1  LIG1        0.0278
     42 H          -5.3255   -4.1689    0.0642 H       1  LIG1        0.0278
     43 H           2.8975   -1.8192   -2.8135 H       1  LIG1        0.0280
     44 H           2.0621   -2.4144   -4.2508 H       1  LIG1        0.0280
     45 H           1.2276   -2.3885   -2.6845 H       1  LIG1        0.0280
     46 H          -1.3588   -0.5385   -5.7377 H       1  LIG1        0.0294
     47 H          -1.0654   -1.7786   -4.5087 H       1  LIG1        0.0294
     48 H           0.0063   -1.6549   -5.9168 H       1  LIG1        0.0294
     49 H          -3.2682   -0.1225    4.4618 H       1  LIG1        0.0309
     50 H          -3.3773   -1.6469    3.5771 H       1  LIG1        0.0309
     51 H          -4.8102   -0.5609    3.7060 H       1  LIG1        0.0309
@<TRIPOS>BOND
     1     1     4    2
     2     1     5    2
     3     1     9    1
     4     1    12    1
     5     2    15   ar
     6     2    26   ar
     7     3    10   ar
     8     3    20   ar
     9     6    19    2
    10     7    24    2
    11     8    11    1
    12     8    19   am
    13     9    20    1
    14    10    25   ar
    15    11    13   ar
    16    11    14   ar
    17    12    15   ar
    18    12    21   ar
    19    13    17   ar
    20    13    23    1
    21    14    18   ar
    22    14    24    1
    23    15    19    1
    24    16    17   ar
    25    16    18   ar
    26    16    27    1
    27    20    22   ar
    28    21    26   ar
    29    22    25   ar
    30    22    28    1
    31    24    30    1
    32    25    29    1
    33     8    31    1
    34     9    32    1
    35    17    33    1
    36    18    34    1
    37    21    35    1
    38    23    36    1
    39    23    37    1
    40    23    38    1
    41    26    39    1
    42    27    40    1
    43    27    41    1
    44    27    42    1
    45    28    43    1
    46    28    44    1
    47    28    45    1
    48    29    46    1
    49    29    47    1
    50    29    48    1
    51    30    49    1
    52    30    50    1
    53    30    51    1
@<TRIPOS>MOLECULE
9911482
 51 53 0 0 0
SMALL
GASTEIGER

@<TRIPOS>ATOM
      1 S           2.1678    1.7106   -2.0091 S.O2    1  LIG1        0.0758
      2 S          -0.6587    3.4922    0.6799 S.2     1  LIG1       -0.0902
      3 O           5.0252   -0.4464   -1.7941 O.2     1  LIG1       -0.3377
      4 O           2.3970    2.6818   -3.0595 O.2     1  LIG1       -0.1499
      5 O           1.5370    0.4497   -2.2970 O.2     1  LIG1       -0.1499
      6 O          -0.2930   -0.1325   -0.5713 O.2     1  LIG1       -0.2692
      7 O          -2.9496    1.2270    2.3295 O.2     1  LIG1       -0.2923
      8 N          -2.1788    1.1172   -0.2001 N.am    1  LIG1       -0.2802
      9 N           3.6797    1.5136   -1.2616 N.pl3   1  LIG1       -0.1831
     10 N           5.2412   -1.7250   -1.3236 N.ar    1  LIG1       -0.0810
     11 C          -3.0426   -0.0037   -0.2742 C.ar    1  LIG1        0.0471
     12 C           1.1626    2.5882   -0.8880 C.ar    1  LIG1        0.1277
     13 C          -3.3663   -0.5632   -1.5253 C.ar    1  LIG1       -0.0283
     14 C          -3.6195   -0.5278    0.9013 C.ar    1  LIG1        0.0388
     15 C          -0.0428    2.2125   -0.3118 C.ar    1  LIG1        0.1007
     16 C          -4.8419   -2.1699   -0.4126 C.ar    1  LIG1       -0.0494
     17 C          -4.2654   -1.6448   -1.5743 C.ar    1  LIG1       -0.0541
     18 C          -4.5073   -1.6110    0.8251 C.ar    1  LIG1       -0.0466
     19 C          -0.8068    0.9690   -0.4016 C.2     1  LIG1        0.2568
     20 C           4.0570    0.1585   -1.0566 C.ar    1  LIG1        0.2399
     21 C           1.5596    3.9166   -0.4985 C.ar    1  LIG1       -0.0273
     22 C           3.6551   -0.6859   -0.0451 C.ar    1  LIG1        0.0350
     23 C          -2.8936    0.0025   -2.8387 C.3     1  LIG1       -0.0379
     24 C          -3.2592    0.0391    2.2329 C.2     1  LIG1        0.1619
     25 C           4.4173   -1.8674   -0.2793 C.ar    1  LIG1        0.0854
     26 C           0.6551    4.5156    0.3417 C.ar    1  LIG1       -0.0217
     27 C          -5.7904   -3.3308   -0.4833 C.3     1  LIG1       -0.0397
     28 C           2.7045   -0.4482    1.0632 C.3     1  LIG1       -0.0330
     29 C           4.4159   -3.1302    0.4966 C.3     1  LIG1       -0.0188
     30 C          -3.2796   -0.8678    3.4359 C.3     1  LIG1       -0.0013
     31 H          -2.3572    1.7312    0.5992 H       1  LIG1        0.1552
     32 H           4.3461    1.9516   -1.9022 H       1  LIG1        0.1768
     33 H          -4.5306   -2.0685   -2.5430 H       1  LIG1        0.0623
     34 H          -4.9598   -2.0236    1.7232 H       1  LIG1        0.0628
     35 H           2.4591    4.4125   -0.8471 H       1  LIG1        0.0643
     36 H          -2.0688    0.7103   -2.7368 H       1  LIG1        0.0278
     37 H          -3.7220    0.5264   -3.3286 H       1  LIG1        0.0278
     38 H          -2.5477   -0.8027   -3.4954 H       1  LIG1        0.0278
     39 H           0.7009    5.5099    0.7660 H       1  LIG1        0.0694
     40 H          -6.1130   -3.5228   -1.5120 H       1  LIG1        0.0278
     41 H          -6.6883   -3.1249    0.1088 H       1  LIG1        0.0278
     42 H          -5.3062   -4.2343   -0.1002 H       1  LIG1        0.0278
     43 H           2.3413    0.5823    1.0790 H       1  LIG1        0.0280
     44 H           3.1933   -0.6358    2.0260 H       1  LIG1        0.0280
     45 H           1.8433   -1.1178    0.9830 H       1  LIG1        0.0280
     46 H           4.9566   -3.9256   -0.0271 H       1  LIG1        0.0294
     47 H           3.3924   -3.4773    0.6683 H       1  LIG1        0.0294
     48 H           4.8964   -2.9774    1.4684 H       1  LIG1        0.0294
     49 H          -2.5908   -0.4749    4.1901 H       1  LIG1        0.0309
     50 H          -2.9340   -1.8719    3.1734 H       1  LIG1        0.0309
     51 H          -4.2876   -0.9079    3.8546 H       1  LIG1        0.0309
@<TRIPOS>BOND
     1     1     4    2
     2     1     5    2
     3     1     9    1
     4     1    12    1
     5     2    15   ar
     6     2    26   ar
     7     3    10   ar
     8     3    20   ar
     9     6    19    2
    10     7    24    2
    11     8    11    1
    12     8    19   am
    13     9    20    1
    14    10    25   ar
    15    11    13   ar
    16    11    14   ar
    17    12    15   ar
    18    12    21   ar
    19    13    17   ar
    20    13    23    1
    21    14    18   ar
    22    14    24    1
    23    15    19    1
    24    16    17   ar
    25    16    18   ar
    26    16    27    1
    27    20    22   ar
    28    21    26   ar
    29    22    25   ar
    30    22    28    1
    31    24    30    1
    32    25    29    1
    33     8    31    1
    34     9    32    1
    35    17    33    1
    36    18    34    1
    37    21    35    1
    38    23    36    1
    39    23    37    1
    40    23    38    1
    41    26    39    1
    42    27    40    1
    43    27    41    1
    44    27    42    1
    45    28    43    1
    46    28    44    1
    47    28    45    1
    48    29    46    1
    49    29    47    1
    50    29    48    1
    51    30    49    1
    52    30    50    1
    53    30    51    1
@<TRIPOS>MOLECULE
9911482
 51 53 0 0 0
SMALL
GASTEIGER

@<TRIPOS>ATOM
      1 S           1.9734    1.6860   -2.1713 S.O2    1  LIG1        0.0758
      2 S          -0.5662    3.4088    0.8003 S.2     1  LIG1       -0.0902
      3 O           1.0146    4.7925   -3.3089 O.2     1  LIG1       -0.3377
      4 O           1.0612    0.7502   -2.7824 O.2     1  LIG1       -0.1499
      5 O           3.2114    1.2682   -1.5518 O.2     1  LIG1       -0.1499
      6 O          -0.4261   -0.0975   -0.8531 O.2     1  LIG1       -0.2692
      7 O          -3.0168    1.2200    2.4306 O.2     1  LIG1       -0.2923
      8 N          -2.2128    1.1133   -0.0879 N.am    1  LIG1       -0.2802
      9 N           2.3812    2.7645   -3.4409 N.pl3   1  LIG1       -0.1831
     10 N          -0.1750    5.2821   -3.8031 N.ar    1  LIG1       -0.0810
     11 C          -3.1223    0.0313   -0.1916 C.ar    1  LIG1        0.0471
     12 C           1.1294    2.5371   -0.9140 C.ar    1  LIG1        0.1277
     13 C          -3.4756   -0.4915   -1.4513 C.ar    1  LIG1       -0.0283
     14 C          -3.7011   -0.5063    0.9770 C.ar    1  LIG1        0.0388
     15 C          -0.0653    2.1788   -0.3048 C.ar    1  LIG1        0.1007
     16 C          -4.9222   -2.1342   -0.3569 C.ar    1  LIG1       -0.0494
     17 C          -4.3575   -1.5859   -1.5134 C.ar    1  LIG1       -0.0541
     18 C          -4.5907   -1.5874    0.8875 C.ar    1  LIG1       -0.0466
     19 C          -0.8805    0.9753   -0.4664 C.2     1  LIG1        0.2568
     20 C           1.2471    3.5511   -3.8111 C.ar    1  LIG1        0.2399
     21 C           1.6523    3.7744   -0.4079 C.ar    1  LIG1       -0.0273
     22 C           0.2277    3.2086   -4.6762 C.ar    1  LIG1        0.0350
     23 C          -2.9662    0.0687   -2.7529 C.3     1  LIG1       -0.0379
     24 C          -3.3279    0.0343    2.3158 C.2     1  LIG1        0.1619
     25 C          -0.6516    4.3274   -4.6086 C.ar    1  LIG1        0.0854
     26 C           0.8163    4.3583    0.5119 C.ar    1  LIG1       -0.0217
     27 C          -5.8452   -3.3150   -0.4387 C.3     1  LIG1       -0.0397
     28 C           0.0095    1.9511   -5.4300 C.3     1  LIG1       -0.0330
     29 C          -1.9676    4.5040   -5.2664 C.3     1  LIG1       -0.0188
     30 C          -3.3342   -0.8955    3.5010 C.3     1  LIG1       -0.0013
     31 H          -2.3192    1.6894    0.7511 H       1  LIG1        0.1552
     32 H           2.6582    2.1365   -4.1958 H       1  LIG1        0.1768
     33 H          -4.6131   -2.0063   -2.4857 H       1  LIG1        0.0623
     34 H          -5.0364   -2.0158    1.7815 H       1  LIG1        0.0628
     35 H           2.5821    4.2267   -0.7353 H       1  LIG1        0.0643
     36 H          -2.5966    1.0935   -2.6528 H       1  LIG1        0.0278
     37 H          -3.7788    0.1112   -3.4872 H       1  LIG1        0.0278
     38 H          -2.1654   -0.5621   -3.1499 H       1  LIG1        0.0278
     39 H           0.9510    5.3017    1.0249 H       1  LIG1        0.0694
     40 H          -6.1670   -3.5017   -1.4686 H       1  LIG1        0.0278
     41 H          -6.7446   -3.1379    0.1601 H       1  LIG1        0.0278
     42 H          -5.3382   -4.2121   -0.0696 H       1  LIG1        0.0278
     43 H           0.9295    1.3686   -5.5279 H       1  LIG1        0.0280
     44 H          -0.3570    2.1617   -6.4398 H       1  LIG1        0.0280
     45 H          -0.7365    1.3321   -4.9205 H       1  LIG1        0.0280
     46 H          -2.3179    5.5391   -5.1950 H       1  LIG1        0.0294
     47 H          -2.7140    3.8593   -4.7913 H       1  LIG1        0.0294
     48 H          -1.9091    4.2416   -6.3271 H       1  LIG1        0.0294
     49 H          -2.6373   -0.5159    4.2544 H       1  LIG1        0.0309
     50 H          -2.9907   -1.8937    3.2152 H       1  LIG1        0.0309
     51 H          -4.3376   -0.9442    3.9303 H       1  LIG1        0.0309
@<TRIPOS>BOND
     1     1     4    2
     2     1     5    2
     3     1     9    1
     4     1    12    1
     5     2    15   ar
     6     2    26   ar
     7     3    10   ar
     8     3    20   ar
     9     6    19    2
    10     7    24    2
    11     8    11    1
    12     8    19   am
    13     9    20    1
    14    10    25   ar
    15    11    13   ar
    16    11    14   ar
    17    12    15   ar
    18    12    21   ar
    19    13    17   ar
    20    13    23    1
    21    14    18   ar
    22    14    24    1
    23    15    19    1
    24    16    17   ar
    25    16    18   ar
    26    16    27    1
    27    20    22   ar
    28    21    26   ar
    29    22    25   ar
    30    22    28    1
    31    24    30    1
    32    25    29    1
    33     8    31    1
    34     9    32    1
    35    17    33    1
    36    18    34    1
    37    21    35    1
    38    23    36    1
    39    23    37    1
    40    23    38    1
    41    26    39    1
    42    27    40    1
    43    27    41    1
    44    27    42    1
    45    28    43    1
    46    28    44    1
    47    28    45    1
    48    29    46    1
    49    29    47    1
    50    29    48    1
    51    30    49    1
    52    30    50    1
    53    30    51    1
@<TRIPOS>MOLECULE
9911482
 51 53 0 0 0
SMALL
GASTEIGER

@<TRIPOS>ATOM
      1 S           2.4479    1.4574   -0.6225 S.O2    1  LIG1        0.0758
      2 S          -0.9882    3.9698   -0.5376 S.2     1  LIG1       -0.0902
      3 O           5.9074    0.8353   -0.0890 O.2     1  LIG1       -0.3377
      4 O           2.3528    0.8643   -1.9381 O.2     1  LIG1       -0.1499
      5 O           2.1939    0.7615    0.6169 O.2     1  LIG1       -0.1499
      6 O          -0.3375    0.2317   -1.3336 O.2     1  LIG1       -0.2692
      7 O          -4.0537    0.1093    3.0748 O.2     1  LIG1       -0.2923
      8 N          -2.1399    1.2273   -0.3213 N.am    1  LIG1       -0.2802
      9 N           3.9668    2.2276   -0.6065 N.pl3   1  LIG1       -0.1831
     10 N           6.6749    0.4875    1.0053 N.ar    1  LIG1       -0.0810
     11 C          -2.9687    0.0809   -0.3422 C.ar    1  LIG1        0.0471
     12 C           1.2421    2.7096   -0.6235 C.ar    1  LIG1        0.1277
     13 C          -3.3591   -0.4891   -1.5751 C.ar    1  LIG1       -0.0283
     14 C          -3.5073   -0.4364    0.8537 C.ar    1  LIG1        0.0388
     15 C          -0.1243    2.4856   -0.6700 C.ar    1  LIG1        0.1007
     16 C          -4.7657   -2.1102   -0.3980 C.ar    1  LIG1       -0.0494
     17 C          -4.2331   -1.5946   -1.5809 C.ar    1  LIG1       -0.0541
     18 C          -4.3979   -1.5240    0.8149 C.ar    1  LIG1       -0.0466
     19 C          -0.8429    1.2276   -0.8351 C.2     1  LIG1        0.2568
     20 C           4.8851    1.6378    0.3056 C.ar    1  LIG1        0.2399
     21 C           1.5692    4.0966   -0.4905 C.ar    1  LIG1       -0.0273
     22 C           4.9857    1.8822    1.6578 C.ar    1  LIG1        0.0350
     23 C          -2.9564    0.0521   -2.9239 C.3     1  LIG1       -0.0379
     24 C          -3.1724    0.0667    2.2169 C.2     1  LIG1        0.1619
     25 C           6.1216    1.1167    2.0483 C.ar    1  LIG1        0.0854
     26 C           0.4455    4.8884   -0.4370 C.ar    1  LIG1       -0.0217
     27 C          -5.7009   -3.2830   -0.4189 C.3     1  LIG1       -0.0397
     28 C           4.1569    2.7540    2.5184 C.3     1  LIG1       -0.0330
     29 C           6.7242    0.9937    3.3969 C.3     1  LIG1       -0.0188
     30 C          -1.7653    0.5023    2.5356 C.3     1  LIG1       -0.0013
     31 H          -2.3207    1.9291    0.3853 H       1  LIG1        0.1552
     32 H           4.3221    2.0868   -1.5575 H       1  LIG1        0.1768
     33 H          -4.5227   -2.0366   -2.5342 H       1  LIG1        0.0623
     34 H          -4.8009   -1.9236    1.7458 H       1  LIG1        0.0628
     35 H           2.5735    4.4980   -0.4232 H       1  LIG1        0.0643
     36 H          -2.4929    1.0392   -2.8733 H       1  LIG1        0.0278
     37 H          -3.8463    0.1710   -3.5540 H       1  LIG1        0.0278
     38 H          -2.2650   -0.6384   -3.4164 H       1  LIG1        0.0278
     39 H           0.3974    5.9650   -0.3363 H       1  LIG1        0.0694
     40 H          -6.0473   -3.5003   -1.4348 H       1  LIG1        0.0278
     41 H          -6.5857   -3.0753    0.1914 H       1  LIG1        0.0278
     42 H          -5.1965   -4.1734   -0.0310 H       1  LIG1        0.0278
     43 H           3.4128    3.3106    1.9427 H       1  LIG1        0.0280
     44 H           4.7866    3.4856    3.0364 H       1  LIG1        0.0280
     45 H           3.6297    2.1603    3.2716 H       1  LIG1        0.0280
     46 H           7.4916    0.2131    3.4272 H       1  LIG1        0.0294
     47 H           5.9597    0.7427    4.1388 H       1  LIG1        0.0294
     48 H           7.1911    1.9397    3.6896 H       1  LIG1        0.0294
     49 H          -1.5231    0.1952    3.5570 H       1  LIG1        0.0309
     50 H          -1.6941    1.5908    2.4684 H       1  LIG1        0.0309
     51 H          -1.0360    0.0287    1.8746 H       1  LIG1        0.0309
@<TRIPOS>BOND
     1     1     4    2
     2     1     5    2
     3     1     9    1
     4     1    12    1
     5     2    15   ar
     6     2    26   ar
     7     3    10   ar
     8     3    20   ar
     9     6    19    2
    10     7    24    2
    11     8    11    1
    12     8    19   am
    13     9    20    1
    14    10    25   ar
    15    11    13   ar
    16    11    14   ar
    17    12    15   ar
    18    12    21   ar
    19    13    17   ar
    20    13    23    1
    21    14    18   ar
    22    14    24    1
    23    15    19    1
    24    16    17   ar
    25    16    18   ar
    26    16    27    1
    27    20    22   ar
    28    21    26   ar
    29    22    25   ar
    30    22    28    1
    31    24    30    1
    32    25    29    1
    33     8    31    1
    34     9    32    1
    35    17    33    1
    36    18    34    1
    37    21    35    1
    38    23    36    1
    39    23    37    1
    40    23    38    1
    41    26    39    1
    42    27    40    1
    43    27    41    1
    44    27    42    1
    45    28    43    1
    46    28    44    1
    47    28    45    1
    48    29    46    1
    49    29    47    1
    50    29    48    1
    51    30    49    1
    52    30    50    1
    53    30    51    1
@<TRIPOS>MOLECULE
9911482
 51 53 0 0 0
SMALL
GASTEIGER

@<TRIPOS>ATOM
      1 S           2.3367    1.3198    0.7437 S.O2    1  LIG1        0.0758
      2 S          -0.8350    3.7641   -0.7199 S.2     1  LIG1       -0.0902
      3 O           5.8687    0.8680    1.0236 O.2     1  LIG1       -0.3377
      4 O           2.6226    0.5146   -0.4205 O.2     1  LIG1       -0.1499
      5 O           1.7056    0.8414    1.9508 O.2     1  LIG1       -0.1499
      6 O          -0.2243   -0.0644   -0.4849 O.2     1  LIG1       -0.2692
      7 O          -1.9503    0.7378   -2.9666 O.2     1  LIG1       -0.2923
      8 N          -2.1630    1.1486   -0.2572 N.am    1  LIG1       -0.2802
      9 N           3.7896    2.1336    1.1247 N.pl3   1  LIG1       -0.1831
     10 N           6.6576    0.0771    1.8316 N.ar    1  LIG1       -0.0810
     11 C          -3.0464    0.0540   -0.3489 C.ar    1  LIG1        0.0471
     12 C           1.2361    2.5348    0.1592 C.ar    1  LIG1        0.1277
     13 C          -3.8967   -0.1971    0.7506 C.ar    1  LIG1       -0.0283
     14 C          -3.1295   -0.7562   -1.5082 C.ar    1  LIG1        0.0388
     15 C          -0.0604    2.2907   -0.2643 C.ar    1  LIG1        0.1007
     16 C          -4.8299   -2.1319   -0.4072 C.ar    1  LIG1       -0.0494
     17 C          -4.7828   -1.2866    0.7014 C.ar    1  LIG1       -0.0541
     18 C          -4.0068   -1.8575   -1.5055 C.ar    1  LIG1       -0.0466
     19 C          -0.7822    1.0239   -0.3815 C.2     1  LIG1        0.2568
     20 C           4.7593    1.2622    1.7042 C.ar    1  LIG1        0.2399
     21 C           1.5773    3.9262    0.1134 C.ar    1  LIG1       -0.0273
     22 C           4.8266    0.7940    2.9984 C.ar    1  LIG1        0.0350
     23 C          -3.9039    0.6349    2.0067 C.3     1  LIG1       -0.0379
     24 C          -2.4694   -0.3667   -2.8100 C.2     1  LIG1        0.1619
     25 C           6.0286    0.0274    3.0106 C.ar    1  LIG1        0.0854
     26 C           0.5438    4.6980   -0.3621 C.ar    1  LIG1       -0.0217
     27 C          -5.7734   -3.2985   -0.4491 C.3     1  LIG1       -0.0397
     28 C           3.9113    1.0325    4.1370 C.3     1  LIG1       -0.0330
     29 C           6.6204   -0.7394    4.1322 C.3     1  LIG1       -0.0188
     30 C          -2.5704   -1.3058   -3.9895 C.3     1  LIG1       -0.0013
     31 H          -2.4789    1.9814    0.2184 H       1  LIG1        0.1552
     32 H           4.1713    2.4341    0.2244 H       1  LIG1        0.1768
     33 H          -5.4343   -1.4826    1.5524 H       1  LIG1        0.0623
     34 H          -4.0989   -2.5048   -2.3736 H       1  LIG1        0.0628
     35 H           2.5275    4.3503    0.4146 H       1  LIG1        0.0643
     36 H          -3.0150    1.2618    2.1130 H       1  LIG1        0.0278
     37 H          -3.9268   -0.0151    2.8885 H       1  LIG1        0.0278
     38 H          -4.7878    1.2803    2.0178 H       1  LIG1        0.0278
     39 H           0.5293    5.7698   -0.5100 H       1  LIG1        0.0694
     40 H          -6.3256   -3.4030    0.4906 H       1  LIG1        0.0278
     41 H          -5.2186   -4.2273   -0.6160 H       1  LIG1        0.0278
     42 H          -6.5023   -3.1638   -1.2548 H       1  LIG1        0.0278
     43 H           3.2441    1.8796    3.9529 H       1  LIG1        0.0280
     44 H           4.4816    1.2612    5.0441 H       1  LIG1        0.0280
     45 H           3.3034    0.1439    4.3322 H       1  LIG1        0.0280
     46 H           7.4858   -1.3265    3.8065 H       1  LIG1        0.0294
     47 H           5.8849   -1.4321    4.5531 H       1  LIG1        0.0294
     48 H           6.9511   -0.0609    4.9249 H       1  LIG1        0.0294
     49 H          -1.9351   -0.9370   -4.8012 H       1  LIG1        0.0309
     50 H          -3.6018   -1.3286   -4.3548 H       1  LIG1        0.0309
     51 H          -2.2257   -2.3082   -3.7264 H       1  LIG1        0.0309
@<TRIPOS>BOND
     1     1     4    2
     2     1     5    2
     3     1     9    1
     4     1    12    1
     5     2    15   ar
     6     2    26   ar
     7     3    10   ar
     8     3    20   ar
     9     6    19    2
    10     7    24    2
    11     8    11    1
    12     8    19   am
    13     9    20    1
    14    10    25   ar
    15    11    13   ar
    16    11    14   ar
    17    12    15   ar
    18    12    21   ar
    19    13    17   ar
    20    13    23    1
    21    14    18   ar
    22    14    24    1
    23    15    19    1
    24    16    17   ar
    25    16    18   ar
    26    16    27    1
    27    20    22   ar
    28    21    26   ar
    29    22    25   ar
    30    22    28    1
    31    24    30    1
    32    25    29    1
    33     8    31    1
    34     9    32    1
    35    17    33    1
    36    18    34    1
    37    21    35    1
    38    23    36    1
    39    23    37    1
    40    23    38    1
    41    26    39    1
    42    27    40    1
    43    27    41    1
    44    27    42    1
    45    28    43    1
    46    28    44    1
    47    28    45    1
    48    29    46    1
    49    29    47    1
    50    29    48    1
    51    30    49    1
    52    30    50    1
    53    30    51    1
@<TRIPOS>MOLECULE
9911482
 51 53 0 0 0
SMALL
GASTEIGER

@<TRIPOS>ATOM
      1 S          -2.0194    3.9746   -1.4566 S.O2    1  LIG1        0.0758
      2 S           1.5046    2.3427    0.2961 S.2     1  LIG1       -0.0902
      3 O          -3.6573    6.2452   -3.5605 O.2     1  LIG1       -0.3377
      4 O          -2.9376    3.7185   -0.3656 O.2     1  LIG1       -0.1499
      5 O          -2.0355    3.2405   -2.6966 O.2     1  LIG1       -0.1499
      6 O          -0.2377   -0.0572   -0.1276 O.2     1  LIG1       -0.2692
      7 O          -1.2333   -0.0105   -2.7979 O.2     1  LIG1       -0.2923
      8 N          -2.1956    1.1101   -0.3551 N.am    1  LIG1       -0.2802
      9 N          -2.0198    5.6294   -1.8564 N.pl3   1  LIG1       -0.1831
     10 N          -4.9750    6.6444   -3.6484 N.ar    1  LIG1       -0.0810
     11 C          -3.0220   -0.0365   -0.3864 C.ar    1  LIG1        0.0471
     12 C          -0.4849    3.5770   -0.7485 C.ar    1  LIG1        0.1277
     13 C          -3.9005   -0.2453    0.6990 C.ar    1  LIG1       -0.0283
     14 C          -3.0662   -0.8928   -1.5115 C.ar    1  LIG1        0.0388
     15 C          -0.1103    2.3117   -0.3154 C.ar    1  LIG1        0.1007
     16 C          -4.8396   -2.1915   -0.4311 C.ar    1  LIG1       -0.0494
     17 C          -4.8034   -1.3199    0.6568 C.ar    1  LIG1       -0.0541
     18 C          -3.9668   -1.9748   -1.5044 C.ar    1  LIG1       -0.0466
     19 C          -0.8118    1.0182   -0.2980 C.2     1  LIG1        0.2568
     20 C          -3.3249    6.0483   -2.2570 C.ar    1  LIG1        0.2399
     21 C           0.5317    4.5631   -0.5239 C.ar    1  LIG1       -0.0273
     22 C          -4.3944    6.3803   -1.4545 C.ar    1  LIG1        0.0350
     23 C          -3.9142    0.6109    1.9404 C.3     1  LIG1       -0.0379
     24 C          -2.2958   -0.6244   -2.7803 C.2     1  LIG1        0.1619
     25 C          -5.4144    6.7202   -2.3881 C.ar    1  LIG1        0.0854
     26 C           1.6628    4.0196    0.0372 C.ar    1  LIG1       -0.0217
     27 C          -5.8184   -3.3284   -0.4746 C.3     1  LIG1       -0.0397
     28 C          -4.4918    6.4092    0.0228 C.3     1  LIG1       -0.0330
     29 C          -6.8097    7.1363   -2.1122 C.3     1  LIG1       -0.0188
     30 C          -2.8771   -1.1241   -4.0829 C.3     1  LIG1       -0.0013
     31 H          -2.5941    1.9304    0.0926 H       1  LIG1        0.1552
     32 H          -1.4154    5.7045   -2.6792 H       1  LIG1        0.1768
     33 H          -5.4803   -1.4793    1.4959 H       1  LIG1        0.0623
     34 H          -4.0170   -2.6610   -2.3459 H       1  LIG1        0.0628
     35 H           0.4471    5.6177   -0.7582 H       1  LIG1        0.0643
     36 H          -3.0565    1.2848    2.0125 H       1  LIG1        0.0278
     37 H          -3.8780   -0.0263    2.8308 H       1  LIG1        0.0278
     38 H          -4.8284    1.2119    1.9687 H       1  LIG1        0.0278
     39 H           2.5804    4.5248    0.3068 H       1  LIG1        0.0694
     40 H          -6.3921   -3.4005    0.4544 H       1  LIG1        0.0278
     41 H          -5.2912   -4.2770   -0.6175 H       1  LIG1        0.0278
     42 H          -6.5264   -3.1813   -1.2970 H       1  LIG1        0.0278
     43 H          -3.5276    6.2195    0.5028 H       1  LIG1        0.0280
     44 H          -5.2062    5.6590    0.3740 H       1  LIG1        0.0280
     45 H          -4.8359    7.3934    0.3594 H       1  LIG1        0.0280
     46 H          -7.3881    7.2493   -3.0353 H       1  LIG1        0.0294
     47 H          -6.8238    8.0950   -1.5841 H       1  LIG1        0.0294
     48 H          -7.3157    6.3911   -1.4891 H       1  LIG1        0.0294
     49 H          -2.3629   -0.6342   -4.9155 H       1  LIG1        0.0309
     50 H          -3.9373   -0.8645   -4.1546 H       1  LIG1        0.0309
     51 H          -2.7303   -2.2029   -4.1771 H       1  LIG1        0.0309
@<TRIPOS>BOND
     1     1     4    2
     2     1     5    2
     3     1     9    1
     4     1    12    1
     5     2    15   ar
     6     2    26   ar
     7     3    10   ar
     8     3    20   ar
     9     6    19    2
    10     7    24    2
    11     8    11    1
    12     8    19   am
    13     9    20    1
    14    10    25   ar
    15    11    13   ar
    16    11    14   ar
    17    12    15   ar
    18    12    21   ar
    19    13    17   ar
    20    13    23    1
    21    14    18   ar
    22    14    24    1
    23    15    19    1
    24    16    17   ar
    25    16    18   ar
    26    16    27    1
    27    20    22   ar
    28    21    26   ar
    29    22    25   ar
    30    22    28    1
    31    24    30    1
    32    25    29    1
    33     8    31    1
    34     9    32    1
    35    17    33    1
    36    18    34    1
    37    21    35    1
    38    23    36    1
    39    23    37    1
    40    23    38    1
    41    26    39    1
    42    27    40    1
    43    27    41    1
    44    27    42    1
    45    28    43    1
    46    28    44    1
    47    28    45    1
    48    29    46    1
    49    29    47    1
    50    29    48    1
    51    30    49    1
    52    30    50    1
    53    30    51    1
@<TRIPOS>MOLECULE
9911482
 51 53 0 0 0
SMALL
GASTEIGER

@<TRIPOS>ATOM
      1 S           1.7253    1.7193   -2.1063 S.O2    1  LIG1        0.0758
      2 S          -0.5560    3.7183    0.8800 S.2     1  LIG1       -0.0902
      3 O           4.4703    3.2680   -2.0058 O.2     1  LIG1       -0.3377
      4 O           1.8835    2.5664   -3.2682 O.2     1  LIG1       -0.1499
      5 O           0.8874    0.5426   -2.1720 O.2     1  LIG1       -0.1499
      6 O          -0.1588    0.1992    0.6867 O.2     1  LIG1       -0.2692
      7 O          -2.9329    1.5690   -2.8520 O.2     1  LIG1       -0.2923
      8 N          -1.9529    1.0722   -0.4999 N.am    1  LIG1       -0.2802
      9 N           3.2288    1.1938   -1.5450 N.pl3   1  LIG1       -0.1831
     10 N           5.6261    3.6540   -2.6559 N.ar    1  LIG1       -0.0810
     11 C          -2.8778   -0.0011   -0.4382 C.ar    1  LIG1        0.0471
     12 C           0.9955    2.7522   -0.9258 C.ar    1  LIG1        0.1277
     13 C          -3.1608   -0.6959    0.7564 C.ar    1  LIG1       -0.0283
     14 C          -3.6001   -0.3342   -1.6128 C.ar    1  LIG1        0.0388
     15 C          -0.0463    2.4005   -0.0922 C.ar    1  LIG1        0.1007
     16 C          -4.7666   -2.1168   -0.4317 C.ar    1  LIG1       -0.0494
     17 C          -4.0771   -1.7674    0.7310 C.ar    1  LIG1       -0.0541
     18 C          -4.5293   -1.3884   -1.5985 C.ar    1  LIG1       -0.0466
     19 C          -0.7030    1.1217    0.0897 C.2     1  LIG1        0.2568
     20 C           4.3227    1.9181   -2.0885 C.ar    1  LIG1        0.2399
     21 C           1.3912    4.1161   -0.7413 C.ar    1  LIG1       -0.0273
     22 C           5.3857    1.3847   -2.7871 C.ar    1  LIG1        0.0350
     23 C          -2.5909   -0.3323    2.1025 C.3     1  LIG1       -0.0379
     24 C          -3.3797    0.4222   -2.8885 C.2     1  LIG1        0.1619
     25 C           6.1556    2.5288   -3.1473 C.ar    1  LIG1        0.0854
     26 C           0.6267    4.7541    0.2100 C.ar    1  LIG1       -0.0217
     27 C          -5.7520   -3.2487   -0.4346 C.3     1  LIG1       -0.0397
     28 C           5.6484   -0.0185   -3.1790 C.3     1  LIG1       -0.0330
     29 C           7.3749    2.5854   -3.9896 C.3     1  LIG1       -0.0188
     30 C          -3.7331   -0.2319   -4.2007 C.3     1  LIG1       -0.0013
     31 H          -2.0707    1.6951   -1.3033 H       1  LIG1        0.1552
     32 H           3.2772    0.1806   -1.6236 H       1  LIG1        0.1768
     33 H          -4.2752   -2.3159    1.6518 H       1  LIG1        0.0623
     34 H          -5.0909   -1.6509   -2.4910 H       1  LIG1        0.0628
     35 H           2.1832    4.6093   -1.2946 H       1  LIG1        0.0643
     36 H          -2.3541    0.7331    2.1715 H       1  LIG1        0.0278
     37 H          -1.7026   -0.9321    2.3180 H       1  LIG1        0.0278
     38 H          -3.3276   -0.5211    2.8923 H       1  LIG1        0.0278
     39 H           0.6997    5.7821    0.5393 H       1  LIG1        0.0694
     40 H          -5.9214   -3.6367    0.5752 H       1  LIG1        0.0278
     41 H          -5.3804   -4.0690   -1.0566 H       1  LIG1        0.0278
     42 H          -6.7175   -2.9098   -0.8245 H       1  LIG1        0.0278
     43 H           4.9750   -0.7198   -2.6786 H       1  LIG1        0.0280
     44 H           6.6743   -0.3044   -2.9269 H       1  LIG1        0.0280
     45 H           5.5146   -0.1376   -4.2595 H       1  LIG1        0.0280
     46 H           7.8471    3.5727   -3.9546 H       1  LIG1        0.0294
     47 H           7.1201    2.3698   -5.0328 H       1  LIG1        0.0294
     48 H           8.1116    1.8476   -3.6570 H       1  LIG1        0.0294
     49 H          -3.1940    0.2725   -5.0085 H       1  LIG1        0.0309
     50 H          -4.8070   -0.1437   -4.3837 H       1  LIG1        0.0309
     51 H          -3.4247   -1.2809   -4.2091 H       1  LIG1        0.0309
@<TRIPOS>BOND
     1     1     4    2
     2     1     5    2
     3     1     9    1
     4     1    12    1
     5     2    15   ar
     6     2    26   ar
     7     3    10   ar
     8     3    20   ar
     9     6    19    2
    10     7    24    2
    11     8    11    1
    12     8    19   am
    13     9    20    1
    14    10    25   ar
    15    11    13   ar
    16    11    14   ar
    17    12    15   ar
    18    12    21   ar
    19    13    17   ar
    20    13    23    1
    21    14    18   ar
    22    14    24    1
    23    15    19    1
    24    16    17   ar
    25    16    18   ar
    26    16    27    1
    27    20    22   ar
    28    21    26   ar
    29    22    25   ar
    30    22    28    1
    31    24    30    1
    32    25    29    1
    33     8    31    1
    34     9    32    1
    35    17    33    1
    36    18    34    1
    37    21    35    1
    38    23    36    1
    39    23    37    1
    40    23    38    1
    41    26    39    1
    42    27    40    1
    43    27    41    1
    44    27    42    1
    45    28    43    1
    46    28    44    1
    47    28    45    1
    48    29    46    1
    49    29    47    1
    50    29    48    1
    51    30    49    1
    52    30    50    1
    53    30    51    1
@<TRIPOS>MOLECULE
9911482
 51 53 0 0 0
SMALL
GASTEIGER

@<TRIPOS>ATOM
      1 S           2.2493    1.2806    0.6953 S.O2    1  LIG1        0.0758
      2 S          -0.7851    3.7953   -0.9097 S.2     1  LIG1       -0.0902
      3 O           4.8939    0.9241    3.1352 O.2     1  LIG1       -0.3377
      4 O           2.7608    0.5786   -0.4547 O.2     1  LIG1       -0.1499
      5 O           1.4175    0.6924    1.7226 O.2     1  LIG1       -0.1499
      6 O          -0.2533   -0.0051   -0.8451 O.2     1  LIG1       -0.2692
      7 O          -2.2970    0.8898   -3.0496 O.2     1  LIG1       -0.2923
      8 N          -2.1466    1.1651   -0.2513 N.am    1  LIG1       -0.2802
      9 N           3.5088    2.0954    1.5083 N.pl3   1  LIG1       -0.1831
     10 N           6.0190    0.1275    3.1776 N.ar    1  LIG1       -0.0810
     11 C          -3.0558    0.0886   -0.3486 C.ar    1  LIG1        0.0471
     12 C           1.2332    2.5192    0.0206 C.ar    1  LIG1        0.1277
     13 C          -3.8856   -0.1774    0.7631 C.ar    1  LIG1       -0.0283
     14 C          -3.1704   -0.7075   -1.5132 C.ar    1  LIG1        0.0388
     15 C          -0.0584    2.3112   -0.4300 C.ar    1  LIG1        0.1007
     16 C          -4.8358   -2.1056   -0.3981 C.ar    1  LIG1       -0.0494
     17 C          -4.7696   -1.2705    0.7183 C.ar    1  LIG1       -0.0541
     18 C          -4.0440   -1.8106   -1.5125 C.ar    1  LIG1       -0.0466
     19 C          -0.7963    1.0605   -0.5640 C.2     1  LIG1        0.2568
     20 C           4.5998    1.2411    1.8454 C.ar    1  LIG1        0.2399
     21 C           1.6416    3.8865   -0.0918 C.ar    1  LIG1       -0.0273
     22 C           5.5716    0.7216    1.0164 C.ar    1  LIG1        0.0350
     23 C          -3.8835    0.6574    2.0173 C.3     1  LIG1       -0.0379
     24 C          -2.5633   -0.2923   -2.8239 C.2     1  LIG1        0.1619
     25 C           6.4182    0.0006    1.9076 C.ar    1  LIG1        0.0854
     26 C           0.6362    4.6841   -0.5881 C.ar    1  LIG1       -0.0217
     27 C          -5.7683   -3.2810   -0.4308 C.3     1  LIG1       -0.0397
     28 C           5.7478    0.8714   -0.4468 C.3     1  LIG1       -0.0330
     29 C           7.6256   -0.7962    1.5836 C.3     1  LIG1       -0.0188
     30 C          -2.4137   -1.3197   -3.9181 C.3     1  LIG1       -0.0013
     31 H          -2.4048    1.9620    0.3122 H       1  LIG1        0.1552
     32 H           3.1050    2.4426    2.3811 H       1  LIG1        0.1768
     33 H          -5.4056   -1.4782    1.5784 H       1  LIG1        0.0623
     34 H          -4.1591   -2.4329   -2.3961 H       1  LIG1        0.0628
     35 H           2.6190    4.2705    0.1767 H       1  LIG1        0.0643
     36 H          -2.9239    1.1515    2.1916 H       1  LIG1        0.0278
     37 H          -4.0657    0.0299    2.8968 H       1  LIG1        0.0278
     38 H          -4.6701    1.4160    1.9577 H       1  LIG1        0.0278
     39 H           0.6653    5.7490   -0.7777 H       1  LIG1        0.0694
     40 H          -6.3005   -3.3991    0.5187 H       1  LIG1        0.0278
     41 H          -5.2064   -4.2023   -0.6155 H       1  LIG1        0.0278
     42 H          -6.5138   -3.1489   -1.2214 H       1  LIG1        0.0278
     43 H           5.1865    1.7251   -0.8382 H       1  LIG1        0.0280
     44 H           5.4199   -0.0341   -0.9664 H       1  LIG1        0.0280
     45 H           6.8022    1.0384   -0.6918 H       1  LIG1        0.0280
     46 H           8.0115   -1.3213    2.4637 H       1  LIG1        0.0294
     47 H           8.4199   -0.1473    1.2013 H       1  LIG1        0.0294
     48 H           7.3948   -1.5461    0.8202 H       1  LIG1        0.0294
     49 H          -1.6844   -0.9633   -4.6517 H       1  LIG1        0.0309
     50 H          -3.3747   -1.4586   -4.4224 H       1  LIG1        0.0309
     51 H          -2.0481   -2.2698   -3.5209 H       1  LIG1        0.0309
@<TRIPOS>BOND
     1     1     4    2
     2     1     5    2
     3     1     9    1
     4     1    12    1
     5     2    15   ar
     6     2    26   ar
     7     3    10   ar
     8     3    20   ar
     9     6    19    2
    10     7    24    2
    11     8    11    1
    12     8    19   am
    13     9    20    1
    14    10    25   ar
    15    11    13   ar
    16    11    14   ar
    17    12    15   ar
    18    12    21   ar
    19    13    17   ar
    20    13    23    1
    21    14    18   ar
    22    14    24    1
    23    15    19    1
    24    16    17   ar
    25    16    18   ar
    26    16    27    1
    27    20    22   ar
    28    21    26   ar
    29    22    25   ar
    30    22    28    1
    31    24    30    1
    32    25    29    1
    33     8    31    1
    34     9    32    1
    35    17    33    1
    36    18    34    1
    37    21    35    1
    38    23    36    1
    39    23    37    1
    40    23    38    1
    41    26    39    1
    42    27    40    1
    43    27    41    1
    44    27    42    1
    45    28    43    1
    46    28    44    1
    47    28    45    1
    48    29    46    1
    49    29    47    1
    50    29    48    1
    51    30    49    1
    52    30    50    1
    53    30    51    1
@<TRIPOS>MOLECULE
9911482
 51 53 0 0 0
SMALL
GASTEIGER

@<TRIPOS>ATOM
      1 S           2.0600    1.4700   -1.8627 S.O2    1  LIG1        0.0758
      2 S          -0.6735    3.6262    0.6252 S.2     1  LIG1       -0.0902
      3 O           1.9153   -1.3156   -4.1081 O.2     1  LIG1       -0.3377
      4 O           3.2453    1.2635   -1.0576 O.2     1  LIG1       -0.1499
      5 O           2.1164    2.2048   -3.1070 O.2     1  LIG1       -0.1499
      6 O          -0.3186   -0.0903   -0.0079 O.2     1  LIG1       -0.2692
      7 O          -1.3424    0.2925   -2.7879 O.2     1  LIG1       -0.2923
      8 N          -2.2121    1.1866   -0.3092 N.am    1  LIG1       -0.2802
      9 N           1.2803    0.0168   -2.1595 N.pl3   1  LIG1       -0.1831
     10 N           2.8514   -2.2737   -4.4514 N.ar    1  LIG1       -0.0810
     11 C          -3.0763    0.0762   -0.3776 C.ar    1  LIG1        0.0471
     12 C           1.1151    2.5282   -0.8550 C.ar    1  LIG1        0.1277
     13 C          -3.9796   -0.1336    0.6866 C.ar    1  LIG1       -0.0283
     14 C          -3.0792   -0.7889   -1.5005 C.ar    1  LIG1        0.0388
     15 C          -0.0806    2.2473   -0.2230 C.ar    1  LIG1        0.1007
     16 C          -4.8379   -2.1212   -0.4392 C.ar    1  LIG1       -0.0494
     17 C          -4.8582   -1.2281    0.6331 C.ar    1  LIG1       -0.0541
     18 C          -3.9514   -1.8933   -1.4986 C.ar    1  LIG1       -0.0466
     19 C          -0.8375    1.0098   -0.1790 C.2     1  LIG1        0.2568
     20 C           2.0996   -0.9373   -2.8148 C.ar    1  LIG1        0.2399
     21 C           1.5443    3.8786   -0.6218 C.ar    1  LIG1       -0.0273
     22 C           3.0974   -1.7041   -2.2525 C.ar    1  LIG1        0.0350
     23 C          -4.0461    0.7427    1.9103 C.3     1  LIG1       -0.0379
     24 C          -2.2822   -0.5032   -2.7565 C.2     1  LIG1        0.1619
     25 C           3.5584   -2.4991   -3.3380 C.ar    1  LIG1        0.0854
     26 C           0.6638    4.5801    0.1674 C.ar    1  LIG1       -0.0217
     27 C          -5.7729   -3.2950   -0.4817 C.3     1  LIG1       -0.0397
     28 C           3.5706   -1.7449   -0.8490 C.3     1  LIG1       -0.0330
     29 C           4.6491   -3.5028   -3.3354 C.3     1  LIG1       -0.0188
     30 C          -2.6866   -1.2011   -4.0344 C.3     1  LIG1       -0.0013
     31 H          -2.5555    2.0409    0.1096 H       1  LIG1        0.1552
     32 H           0.4124    0.1959   -2.6857 H       1  LIG1        0.1768
     33 H          -5.5534   -1.3952    1.4557 H       1  LIG1        0.0623
     34 H          -3.9678   -2.5946   -2.3292 H       1  LIG1        0.0628
     35 H           2.4556    4.3047   -1.0275 H       1  LIG1        0.0643
     36 H          -3.1537    1.3592    2.0433 H       1  LIG1        0.0278
     37 H          -4.1266    0.1244    2.8119 H       1  LIG1        0.0278
     38 H          -4.9196    1.3994    1.8515 H       1  LIG1        0.0278
     39 H           0.7427    5.6090    0.4927 H       1  LIG1        0.0694
     40 H          -6.3272   -3.4016    0.4565 H       1  LIG1        0.0278
     41 H          -5.2114   -4.2211   -0.6423 H       1  LIG1        0.0278
     42 H          -6.4979   -3.1678   -1.2919 H       1  LIG1        0.0278
     43 H           2.8639   -1.2650   -0.1655 H       1  LIG1        0.0280
     44 H           4.5407   -1.2472   -0.7561 H       1  LIG1        0.0280
     45 H           3.6872   -2.7818   -0.5153 H       1  LIG1        0.0280
     46 H           4.8825   -3.8490   -4.3474 H       1  LIG1        0.0294
     47 H           4.3633   -4.3725   -2.7353 H       1  LIG1        0.0294
     48 H           5.5619   -3.0749   -2.9084 H       1  LIG1        0.0294
     49 H          -2.1938   -0.7095   -4.8810 H       1  LIG1        0.0309
     50 H          -3.7646   -1.1157   -4.1967 H       1  LIG1        0.0309
     51 H          -2.3715   -2.2463   -4.0123 H       1  LIG1        0.0309
@<TRIPOS>BOND
     1     1     4    2
     2     1     5    2
     3     1     9    1
     4     1    12    1
     5     2    15   ar
     6     2    26   ar
     7     3    10   ar
     8     3    20   ar
     9     6    19    2
    10     7    24    2
    11     8    11    1
    12     8    19   am
    13     9    20    1
    14    10    25   ar
    15    11    13   ar
    16    11    14   ar
    17    12    15   ar
    18    12    21   ar
    19    13    17   ar
    20    13    23    1
    21    14    18   ar
    22    14    24    1
    23    15    19    1
    24    16    17   ar
    25    16    18   ar
    26    16    27    1
    27    20    22   ar
    28    21    26   ar
    29    22    25   ar
    30    22    28    1
    31    24    30    1
    32    25    29    1
    33     8    31    1
    34     9    32    1
    35    17    33    1
    36    18    34    1
    37    21    35    1
    38    23    36    1
    39    23    37    1
    40    23    38    1
    41    26    39    1
    42    27    40    1
    43    27    41    1
    44    27    42    1
    45    28    43    1
    46    28    44    1
    47    28    45    1
    48    29    46    1
    49    29    47    1
    50    29    48    1
    51    30    49    1
    52    30    50    1
    53    30    51    1
@<TRIPOS>MOLECULE
9911482
 51 53 0 0 0
SMALL
GASTEIGER

@<TRIPOS>ATOM
      1 S           2.3344    1.1652   -0.7129 S.O2    1  LIG1        0.0758
      2 S          -0.8408    3.9104   -0.0277 S.2     1  LIG1       -0.0902
      3 O           1.4216   -1.9257   -0.1840 O.2     1  LIG1       -0.3377
      4 O           3.6366    1.7903   -0.8512 O.2     1  LIG1       -0.1499
      5 O           1.6834    0.5322   -1.8372 O.2     1  LIG1       -0.1499
      6 O          -0.4231    0.1963    0.6622 O.2     1  LIG1       -0.2692
      7 O          -2.6126   -1.1733    2.9238 O.2     1  LIG1       -0.2923
      8 N          -2.1318    1.1912   -0.5123 N.am    1  LIG1       -0.2802
      9 N           2.4750    0.1480    0.6237 N.pl3   1  LIG1       -0.1831
     10 N           1.7904   -3.2224   -0.4875 N.ar    1  LIG1       -0.0810
     11 C          -3.0737    0.1318   -0.4392 C.ar    1  LIG1        0.0471
     12 C           1.2747    2.4967   -0.3620 C.ar    1  LIG1        0.1277
     13 C          -3.7996   -0.1885   -1.6140 C.ar    1  LIG1       -0.0283
     14 C          -3.3204   -0.6156    0.7373 C.ar    1  LIG1        0.0388
     15 C          -0.0843    2.3710   -0.1379 C.ar    1  LIG1        0.1007
     16 C          -4.8657   -2.0740   -0.4700 C.ar    1  LIG1       -0.0494
     17 C          -4.6765   -1.2940   -1.6101 C.ar    1  LIG1       -0.0541
     18 C          -4.1955   -1.7182    0.7000 C.ar    1  LIG1       -0.0466
     19 C          -0.8673    1.1602    0.0515 C.2     1  LIG1        0.2568
     20 C           2.5107   -1.2205    0.2252 C.ar    1  LIG1        0.2399
     21 C           1.6931    3.8647   -0.4042 C.ar    1  LIG1       -0.0273
     22 C           3.6246   -2.0325    0.1803 C.ar    1  LIG1        0.0350
     23 C          -3.5990    0.4837   -2.9502 C.3     1  LIG1       -0.0379
     24 C          -2.8380   -0.2742    2.1125 C.2     1  LIG1        0.1619
     25 C           3.1087   -3.2790   -0.2785 C.ar    1  LIG1        0.0854
     26 C           0.6406    4.7342   -0.2322 C.ar    1  LIG1       -0.0217
     27 C          -5.7910   -3.2542   -0.4772 C.3     1  LIG1       -0.0397
     28 C           5.0419   -1.7035    0.4487 C.3     1  LIG1       -0.0330
     29 C           3.8469   -4.5321   -0.5597 C.3     1  LIG1       -0.0188
     30 C          -2.7683    1.1702    2.5401 C.3     1  LIG1       -0.0013
     31 H          -2.2452    1.8773   -1.2446 H       1  LIG1        0.1552
     32 H           3.3052    0.4325    1.1368 H       1  LIG1        0.1768
     33 H          -5.1963   -1.5660   -2.5289 H       1  LIG1        0.0623
     34 H          -4.3673   -2.2977    1.6076 H       1  LIG1        0.0628
     35 H           2.7115    4.1931   -0.5818 H       1  LIG1        0.0643
     36 H          -3.1967    1.4952   -2.8776 H       1  LIG1        0.0278
     37 H          -4.5576    0.5776   -3.4734 H       1  LIG1        0.0278
     38 H          -2.9223   -0.1182   -3.5660 H       1  LIG1        0.0278
     39 H           0.6689    5.8160   -0.2333 H       1  LIG1        0.0694
     40 H          -6.1181   -3.5013   -1.4925 H       1  LIG1        0.0278
     41 H          -6.6791   -3.0397    0.1256 H       1  LIG1        0.0278
     42 H          -5.2846   -4.1359   -0.0707 H       1  LIG1        0.0278
     43 H           5.1628   -0.6955    0.8551 H       1  LIG1        0.0280
     44 H           5.6193   -1.7575   -0.4807 H       1  LIG1        0.0280
     45 H           5.4746   -2.4091    1.1640 H       1  LIG1        0.0280
     46 H           3.1666   -5.3603   -0.7847 H       1  LIG1        0.0294
     47 H           4.4556   -4.8218    0.3025 H       1  LIG1        0.0294
     48 H           4.5090   -4.3947   -1.4205 H       1  LIG1        0.0294
     49 H          -3.2562    1.2675    3.5149 H       1  LIG1        0.0309
     50 H          -3.2974    1.8300    1.8496 H       1  LIG1        0.0309
     51 H          -1.7261    1.4815    2.6383 H       1  LIG1        0.0309
@<TRIPOS>BOND
     1     1     4    2
     2     1     5    2
     3     1     9    1
     4     1    12    1
     5     2    15   ar
     6     2    26   ar
     7     3    10   ar
     8     3    20   ar
     9     6    19    2
    10     7    24    2
    11     8    11    1
    12     8    19   am
    13     9    20    1
    14    10    25   ar
    15    11    13   ar
    16    11    14   ar
    17    12    15   ar
    18    12    21   ar
    19    13    17   ar
    20    13    23    1
    21    14    18   ar
    22    14    24    1
    23    15    19    1
    24    16    17   ar
    25    16    18   ar
    26    16    27    1
    27    20    22   ar
    28    21    26   ar
    29    22    25   ar
    30    22    28    1
    31    24    30    1
    32    25    29    1
    33     8    31    1
    34     9    32    1
    35    17    33    1
    36    18    34    1
    37    21    35    1
    38    23    36    1
    39    23    37    1
    40    23    38    1
    41    26    39    1
    42    27    40    1
    43    27    41    1
    44    27    42    1
    45    28    43    1
    46    28    44    1
    47    28    45    1
    48    29    46    1
    49    29    47    1
    50    29    48    1
    51    30    49    1
    52    30    50    1
    53    30    51    1
@<TRIPOS>MOLECULE
9911482
 51 53 0 0 0
SMALL
GASTEIGER

@<TRIPOS>ATOM
      1 S           2.3868    1.3817   -0.5810 S.O2    1  LIG1        0.0758
      2 S          -1.0634    3.8774   -0.2923 S.2     1  LIG1       -0.0902
      3 O           0.9629    1.7090   -3.5306 O.2     1  LIG1       -0.3377
      4 O           1.8508    0.2219    0.0952 O.2     1  LIG1       -0.1499
      5 O           3.5486    2.0446   -0.0198 O.2     1  LIG1       -0.1499
      6 O          -0.5456    0.1726   -1.2700 O.2     1  LIG1       -0.2692
      7 O          -2.8007    1.1261    2.4531 O.2     1  LIG1       -0.2923
      8 N          -2.2462    1.1569   -0.0908 N.am    1  LIG1       -0.2802
      9 N           2.8400    0.9383   -2.1445 N.pl3   1  LIG1       -0.1831
     10 N           0.0408    1.1675   -4.4078 N.ar    1  LIG1       -0.0810
     11 C          -3.1360    0.0596   -0.1907 C.ar    1  LIG1        0.0471
     12 C           1.1524    2.5989   -0.5133 C.ar    1  LIG1        0.1277
     13 C          -3.5826   -0.4065   -1.4450 C.ar    1  LIG1       -0.0283
     14 C          -3.6168   -0.5463    0.9922 C.ar    1  LIG1        0.0388
     15 C          -0.2184    2.3842   -0.4919 C.ar    1  LIG1        0.1007
     16 C          -4.9000   -2.1416   -0.3274 C.ar    1  LIG1       -0.0494
     17 C          -4.4541   -1.5113   -1.4919 C.ar    1  LIG1       -0.0541
     18 C          -4.4852   -1.6464    0.9130 C.ar    1  LIG1       -0.0466
     19 C          -0.9824    1.1505   -0.6694 C.2     1  LIG1        0.2568
     20 C           1.7625    0.7243   -3.0399 C.ar    1  LIG1        0.2399
     21 C           1.4859    3.9905   -0.3939 C.ar    1  LIG1       -0.0273
     22 C           1.3941   -0.4847   -3.5895 C.ar    1  LIG1        0.0350
     23 C          -3.3208    0.3019   -2.7496 C.3     1  LIG1       -0.0379
     24 C          -3.1879   -0.0369    2.3326 C.2     1  LIG1        0.1619
     25 C           0.2806   -0.1494   -4.4113 C.ar    1  LIG1        0.0854
     26 C           0.3751    4.7874   -0.2598 C.ar    1  LIG1       -0.0217
     27 C          -5.8275   -3.3193   -0.3969 C.3     1  LIG1       -0.0397
     28 C           1.9214   -1.8406   -3.3159 C.3     1  LIG1       -0.0330
     29 C          -0.5911   -1.0701   -5.1775 C.3     1  LIG1       -0.0188
     30 C          -3.2514   -0.9615    3.5206 C.3     1  LIG1       -0.0013
     31 H          -2.2758    1.6663    0.7961 H       1  LIG1        0.1552
     32 H           3.4533    0.1323   -2.0521 H       1  LIG1        0.1768
     33 H          -4.8086   -1.8640   -2.4604 H       1  LIG1        0.0623
     34 H          -4.8625   -2.1263    1.8125 H       1  LIG1        0.0628
     35 H           2.4982    4.3804   -0.3781 H       1  LIG1        0.0643
     36 H          -2.4856    1.0007   -2.7189 H       1  LIG1        0.0278
     37 H          -4.2113    0.8733   -3.0340 H       1  LIG1        0.0278
     38 H          -3.1066   -0.4250   -3.5397 H       1  LIG1        0.0278
     39 H           0.3416    5.8617   -0.1360 H       1  LIG1        0.0694
     40 H          -6.0976   -3.5587   -1.4308 H       1  LIG1        0.0278
     41 H          -6.7520   -3.1050    0.1487 H       1  LIG1        0.0278
     42 H          -5.3475   -4.2017    0.0381 H       1  LIG1        0.0278
     43 H           2.8904   -1.8126   -2.8102 H       1  LIG1        0.0280
     44 H           2.0503   -2.4014   -4.2468 H       1  LIG1        0.0280
     45 H           1.2244   -2.3918   -2.6758 H       1  LIG1        0.0280
     46 H          -1.3679   -0.5297   -5.7294 H       1  LIG1        0.0294
     47 H          -1.0875   -1.7720   -4.4978 H       1  LIG1        0.0294
     48 H          -0.0029   -1.6481   -5.8962 H       1  LIG1        0.0294
     49 H          -2.5875   -0.5826    4.3038 H       1  LIG1        0.0309
     50 H          -2.9018   -1.9626    3.2535 H       1  LIG1        0.0309
     51 H          -4.2722   -0.9997    3.9085 H       1  LIG1        0.0309
@<TRIPOS>BOND
     1     1     4    2
     2     1     5    2
     3     1     9    1
     4     1    12    1
     5     2    15   ar
     6     2    26   ar
     7     3    10   ar
     8     3    20   ar
     9     6    19    2
    10     7    24    2
    11     8    11    1
    12     8    19   am
    13     9    20    1
    14    10    25   ar
    15    11    13   ar
    16    11    14   ar
    17    12    15   ar
    18    12    21   ar
    19    13    17   ar
    20    13    23    1
    21    14    18   ar
    22    14    24    1
    23    15    19    1
    24    16    17   ar
    25    16    18   ar
    26    16    27    1
    27    20    22   ar
    28    21    26   ar
    29    22    25   ar
    30    22    28    1
    31    24    30    1
    32    25    29    1
    33     8    31    1
    34     9    32    1
    35    17    33    1
    36    18    34    1
    37    21    35    1
    38    23    36    1
    39    23    37    1
    40    23    38    1
    41    26    39    1
    42    27    40    1
    43    27    41    1
    44    27    42    1
    45    28    43    1
    46    28    44    1
    47    28    45    1
    48    29    46    1
    49    29    47    1
    50    29    48    1
    51    30    49    1
    52    30    50    1
    53    30    51    1
@<TRIPOS>MOLECULE
9911482
 51 53 0 0 0
SMALL
GASTEIGER

@<TRIPOS>ATOM
      1 S           1.9825    1.5068   -1.9109 S.O2    1  LIG1        0.0758
      2 S          -0.5718    3.7682    0.6576 S.2     1  LIG1       -0.0902
      3 O           1.5439   -0.1707   -5.0098 O.2     1  LIG1       -0.3377
      4 O           1.5864    0.1995   -1.4529 O.2     1  LIG1       -0.1499
      5 O           3.3516    1.9744   -1.8625 O.2     1  LIG1       -0.1499
      6 O          -0.2139    0.2587    0.8798 O.2     1  LIG1       -0.2692
      7 O          -2.3011    1.1893   -3.0576 O.2     1  LIG1       -0.2923
      8 N          -1.8600    1.0200   -0.5658 N.am    1  LIG1       -0.2802
      9 N           1.3416    1.7181   -3.4734 N.pl3   1  LIG1       -0.1831
     10 N           2.4567   -0.7073   -5.8955 N.ar    1  LIG1       -0.0810
     11 C          -2.8172   -0.0236   -0.5051 C.ar    1  LIG1        0.0471
     12 C           1.1310    2.6360   -0.8998 C.ar    1  LIG1        0.1277
     13 C          -3.1974   -0.6457    0.7042 C.ar    1  LIG1       -0.0283
     14 C          -3.4724   -0.3968   -1.7107 C.ar    1  LIG1        0.0388
     15 C           0.0203    2.3604   -0.1284 C.ar    1  LIG1        0.1007
     16 C          -4.7657   -2.0828   -0.5097 C.ar    1  LIG1       -0.0494
     17 C          -4.1406   -1.6921    0.6744 C.ar    1  LIG1       -0.0541
     18 C          -4.4371   -1.4210   -1.6957 C.ar    1  LIG1       -0.0466
     19 C          -0.6694    1.1122    0.1289 C.2     1  LIG1        0.2568
     20 C           2.0625    0.9470   -4.4344 C.ar    1  LIG1        0.2399
     21 C           1.5027    4.0190   -0.8251 C.ar    1  LIG1       -0.0273
     22 C           3.2971    1.2144   -4.9878 C.ar    1  LIG1        0.0350
     23 C          -2.7011   -0.2425    2.0685 C.3     1  LIG1       -0.0379
     24 C          -3.1135    0.2603   -3.0215 C.2     1  LIG1        0.1619
     25 C           3.5085    0.1186   -5.8731 C.ar    1  LIG1        0.0854
     26 C           0.6654    4.7407   -0.0049 C.ar    1  LIG1       -0.0217
     27 C          -5.7739   -3.1950   -0.5158 C.3     1  LIG1       -0.0397
     28 C           4.2071    2.3601   -4.7582 C.3     1  LIG1       -0.0330
     29 C           4.6896   -0.1567   -6.7259 C.3     1  LIG1       -0.0188
     30 C          -3.7580   -0.2343   -4.2932 C.3     1  LIG1       -0.0013
     31 H          -1.8997    1.5842   -1.4155 H       1  LIG1        0.1552
     32 H           0.3754    1.3750   -3.4484 H       1  LIG1        0.1768
     33 H          -4.4053   -2.1925    1.6063 H       1  LIG1        0.0623
     34 H          -4.9455   -1.7332   -2.6039 H       1  LIG1        0.0628
     35 H           2.3502    4.4560   -1.3421 H       1  LIG1        0.0643
     36 H          -2.4330    0.8167    2.1109 H       1  LIG1        0.0278
     37 H          -1.8517   -0.8640    2.3656 H       1  LIG1        0.0278
     38 H          -3.4914   -0.3733    2.8174 H       1  LIG1        0.0278
     39 H           0.7184    5.7936    0.2383 H       1  LIG1        0.0694
     40 H          -5.9719   -3.5645    0.4960 H       1  LIG1        0.0278
     41 H          -5.4046   -4.0337   -1.1144 H       1  LIG1        0.0278
     42 H          -6.7233   -2.8440   -0.9328 H       1  LIG1        0.0278
     43 H           3.6858    3.2068   -4.3014 H       1  LIG1        0.0280
     44 H           4.6271    2.7120   -5.7067 H       1  LIG1        0.0280
     45 H           5.0377    2.0674   -4.1086 H       1  LIG1        0.0280
     46 H           4.6344   -1.1496   -7.1844 H       1  LIG1        0.0294
     47 H           5.6092   -0.1127   -6.1334 H       1  LIG1        0.0294
     48 H           4.7605    0.5846   -7.5281 H       1  LIG1        0.0294
     49 H          -3.3442    0.3166   -5.1437 H       1  LIG1        0.0309
     50 H          -4.8365   -0.0572   -4.2685 H       1  LIG1        0.0309
     51 H          -3.5368   -1.2943   -4.4439 H       1  LIG1        0.0309
@<TRIPOS>BOND
     1     1     4    2
     2     1     5    2
     3     1     9    1
     4     1    12    1
     5     2    15   ar
     6     2    26   ar
     7     3    10   ar
     8     3    20   ar
     9     6    19    2
    10     7    24    2
    11     8    11    1
    12     8    19   am
    13     9    20    1
    14    10    25   ar
    15    11    13   ar
    16    11    14   ar
    17    12    15   ar
    18    12    21   ar
    19    13    17   ar
    20    13    23    1
    21    14    18   ar
    22    14    24    1
    23    15    19    1
    24    16    17   ar
    25    16    18   ar
    26    16    27    1
    27    20    22   ar
    28    21    26   ar
    29    22    25   ar
    30    22    28    1
    31    24    30    1
    32    25    29    1
    33     8    31    1
    34     9    32    1
    35    17    33    1
    36    18    34    1
    37    21    35    1
    38    23    36    1
    39    23    37    1
    40    23    38    1
    41    26    39    1
    42    27    40    1
    43    27    41    1
    44    27    42    1
    45    28    43    1
    46    28    44    1
    47    28    45    1
    48    29    46    1
    49    29    47    1
    50    29    48    1
    51    30    49    1
    52    30    50    1
    53    30    51    1
@<TRIPOS>MOLECULE
9911482
 51 53 0 0 0
SMALL
GASTEIGER

@<TRIPOS>ATOM
      1 S           2.1965    1.6198   -1.8397 S.O2    1  LIG1        0.0758
      2 S          -0.8204    3.7068    0.3224 S.2     1  LIG1       -0.0902
      3 O           4.7913   -0.6460   -1.2642 O.2     1  LIG1       -0.3377
      4 O           3.3694    2.4231   -2.1120 O.2     1  LIG1       -0.1499
      5 O           1.3383    1.1534   -2.9063 O.2     1  LIG1       -0.1499
      6 O          -0.1436   -0.0012   -0.5195 O.2     1  LIG1       -0.2692
      7 O          -1.3060   -2.1803    1.8527 O.2     1  LIG1       -0.2923
      8 N          -2.1383    1.1375   -0.4626 N.am    1  LIG1       -0.2802
      9 N           2.5722    0.3069   -0.8449 N.pl3   1  LIG1       -0.1831
     10 N           6.0756   -0.5182   -0.7645 N.ar    1  LIG1       -0.0810
     11 C          -3.0053    0.0215   -0.4358 C.ar    1  LIG1        0.0471
     12 C           1.1662    2.6961   -0.9426 C.ar    1  LIG1        0.1277
     13 C          -4.1052    0.0164   -1.3241 C.ar    1  LIG1       -0.0283
     14 C          -2.8403   -1.0636    0.4546 C.ar    1  LIG1        0.0388
     15 C          -0.0805    2.3556   -0.4482 C.ar    1  LIG1        0.1007
     16 C          -4.8180   -2.1608   -0.4593 C.ar    1  LIG1       -0.0494
     17 C          -5.0015   -1.0716   -1.3125 C.ar    1  LIG1       -0.0541
     18 C          -3.7344   -2.1486    0.4195 C.ar    1  LIG1       -0.0466
     19 C          -0.7526    1.0616   -0.4712 C.2     1  LIG1        0.2568
     20 C           3.9589    0.1860   -0.5886 C.ar    1  LIG1        0.2399
     21 C           1.5091    4.0607   -0.6765 C.ar    1  LIG1       -0.0273
     22 C           4.6505    0.8197    0.4190 C.ar    1  LIG1        0.0350
     23 C          -4.3728    1.0860   -2.3530 C.3     1  LIG1       -0.0379
     24 C          -1.8591   -1.1166    1.5761 C.2     1  LIG1        0.1619
     25 C           5.9848    0.3613    0.2405 C.ar    1  LIG1        0.0854
     26 C           0.5179    4.7186    0.0128 C.ar    1  LIG1       -0.0217
     27 C          -5.7829   -3.3090   -0.4466 C.3     1  LIG1       -0.0397
     28 C           4.1411    1.7351    1.4631 C.3     1  LIG1       -0.0330
     29 C           7.1868    0.7245    1.0270 C.3     1  LIG1       -0.0188
     30 C          -1.6619    0.1057    2.4365 C.3     1  LIG1       -0.0013
     31 H          -2.5120    2.0185   -0.7861 H       1  LIG1        0.1552
     32 H           2.1839   -0.5176   -1.3123 H       1  LIG1        0.1768
     33 H          -5.8458   -1.0731   -2.0019 H       1  LIG1        0.0623
     34 H          -3.5978   -2.9787    1.1130 H       1  LIG1        0.0628
     35 H           2.4355    4.5346   -0.9841 H       1  LIG1        0.0643
     36 H          -3.5600    1.8074   -2.4606 H       1  LIG1        0.0278
     37 H          -5.2845    1.6333   -2.0936 H       1  LIG1        0.0278
     38 H          -4.5034    0.6251   -3.3391 H       1  LIG1        0.0278
     39 H           0.5138    5.7497    0.3422 H       1  LIG1        0.0694
     40 H          -6.4877   -3.2495   -1.2825 H       1  LIG1        0.0278
     41 H          -6.3580   -3.3046    0.4849 H       1  LIG1        0.0278
     42 H          -5.2453   -4.2587   -0.5335 H       1  LIG1        0.0278
     43 H           3.0490    1.8033    1.4498 H       1  LIG1        0.0280
     44 H           4.5472    2.7417    1.3249 H       1  LIG1        0.0280
     45 H           4.4333    1.3776    2.4566 H       1  LIG1        0.0280
     46 H           8.1039    0.3509    0.5606 H       1  LIG1        0.0294
     47 H           7.1207    0.3041    2.0354 H       1  LIG1        0.0294
     48 H           7.2737    1.8126    1.1131 H       1  LIG1        0.0294
     49 H          -1.7543   -0.1895    3.4865 H       1  LIG1        0.0309
     50 H          -2.4229    0.8662    2.2480 H       1  LIG1        0.0309
     51 H          -0.6663    0.5223    2.2696 H       1  LIG1        0.0309
@<TRIPOS>BOND
     1     1     4    2
     2     1     5    2
     3     1     9    1
     4     1    12    1
     5     2    15   ar
     6     2    26   ar
     7     3    10   ar
     8     3    20   ar
     9     6    19    2
    10     7    24    2
    11     8    11    1
    12     8    19   am
    13     9    20    1
    14    10    25   ar
    15    11    13   ar
    16    11    14   ar
    17    12    15   ar
    18    12    21   ar
    19    13    17   ar
    20    13    23    1
    21    14    18   ar
    22    14    24    1
    23    15    19    1
    24    16    17   ar
    25    16    18   ar
    26    16    27    1
    27    20    22   ar
    28    21    26   ar
    29    22    25   ar
    30    22    28    1
    31    24    30    1
    32    25    29    1
    33     8    31    1
    34     9    32    1
    35    17    33    1
    36    18    34    1
    37    21    35    1
    38    23    36    1
    39    23    37    1
    40    23    38    1
    41    26    39    1
    42    27    40    1
    43    27    41    1
    44    27    42    1
    45    28    43    1
    46    28    44    1
    47    28    45    1
    48    29    46    1
    49    29    47    1
    50    29    48    1
    51    30    49    1
    52    30    50    1
    53    30    51    1
@<TRIPOS>MOLECULE
9911482
 51 53 0 0 0
SMALL
GASTEIGER

@<TRIPOS>ATOM
      1 S           2.4474    1.6708    0.6919 S.O2    1  LIG1        0.0758
      2 S          -0.8453    3.7561   -1.0457 S.2     1  LIG1       -0.0902
      3 O           4.9902    0.0224   -0.2114 O.2     1  LIG1       -0.3377
      4 O           1.8191    1.3579    1.9563 O.2     1  LIG1       -0.1499
      5 O           3.6830    2.4199    0.6165 O.2     1  LIG1       -0.1499
      6 O          -0.0246    0.0527   -0.1445 O.2     1  LIG1       -0.2692
      7 O          -1.1428   -2.1538    1.7855 O.2     1  LIG1       -0.2923
      8 N          -2.0374    1.1115   -0.4748 N.am    1  LIG1       -0.2802
      9 N           2.5463    0.2576   -0.2218 N.pl3   1  LIG1       -0.1831
     10 N           5.9354   -0.9332    0.1028 N.ar    1  LIG1       -0.0810
     11 C          -2.9135   -0.0015   -0.4329 C.ar    1  LIG1        0.0471
     12 C           1.2873    2.7371   -0.0522 C.ar    1  LIG1        0.1277
     13 C          -4.0166   -0.0046   -1.3217 C.ar    1  LIG1       -0.0283
     14 C          -2.7645   -1.0901    0.4557 C.ar    1  LIG1        0.0388
     15 C          -0.0054    2.3897   -0.4121 C.ar    1  LIG1        0.1007
     16 C          -4.7441   -2.1792   -0.4572 C.ar    1  LIG1       -0.0494
     17 C          -4.9208   -1.0877   -1.3079 C.ar    1  LIG1       -0.0541
     18 C          -3.6618   -2.1723    0.4215 C.ar    1  LIG1       -0.0466
     19 C          -0.6604    1.0865   -0.3147 C.2     1  LIG1        0.2568
     20 C           3.7430   -0.4629    0.0335 C.ar    1  LIG1        0.2399
     21 C           1.5671    4.1228   -0.2826 C.ar    1  LIG1       -0.0273
     22 C           3.8406   -1.7475    0.5245 C.ar    1  LIG1        0.0350
     23 C          -4.3017    1.0722   -2.3399 C.3     1  LIG1       -0.0379
     24 C          -1.8099   -1.1385    1.5940 C.2     1  LIG1        0.1619
     25 C           5.2456   -1.9852    0.5552 C.ar    1  LIG1        0.0854
     26 C           0.4925    4.7886   -0.8214 C.ar    1  LIG1       -0.0217
     27 C          -5.7248   -3.3138   -0.4371 C.3     1  LIG1       -0.0397
     28 C           2.7722   -2.6635    0.9871 C.3     1  LIG1       -0.0330
     29 C           5.9665   -3.1892    1.0308 C.3     1  LIG1       -0.0188
     30 C          -1.7868    0.0269    2.5502 C.3     1  LIG1       -0.0013
     31 H          -2.3975    1.9712   -0.8685 H       1  LIG1        0.1552
     32 H           1.6802   -0.2805   -0.0793 H       1  LIG1        0.1768
     33 H          -5.7713   -1.0797   -1.9903 H       1  LIG1        0.0623
     34 H          -3.5312   -2.9989    1.1201 H       1  LIG1        0.0628
     35 H           2.5119    4.6048   -0.0521 H       1  LIG1        0.0643
     36 H          -3.4801    1.7760   -2.4830 H       1  LIG1        0.0278
     37 H          -5.1922    1.6365   -2.0449 H       1  LIG1        0.0278
     38 H          -4.4811    0.6157   -3.3204 H       1  LIG1        0.0278
     39 H           0.4315    5.8362   -1.0867 H       1  LIG1        0.0694
     40 H          -6.4065   -3.2690   -1.2928 H       1  LIG1        0.0278
     41 H          -6.3230   -3.2746    0.4790 H       1  LIG1        0.0278
     42 H          -5.1995   -4.2732   -0.4830 H       1  LIG1        0.0278
     43 H           1.7720   -2.2706    0.7877 H       1  LIG1        0.0280
     44 H           2.8590   -2.8232    2.0674 H       1  LIG1        0.0280
     45 H           2.8567   -3.6348    0.4899 H       1  LIG1        0.0280
     46 H           7.0284   -3.1546    0.7641 H       1  LIG1        0.0294
     47 H           5.5401   -4.0954    0.5899 H       1  LIG1        0.0294
     48 H           5.8939   -3.2663    2.1203 H       1  LIG1        0.0294
     49 H          -1.8426   -0.3581    3.5728 H       1  LIG1        0.0309
     50 H          -2.6474    0.6843    2.4000 H       1  LIG1        0.0309
     51 H          -0.8648    0.5969    2.4305 H       1  LIG1        0.0309
@<TRIPOS>BOND
     1     1     4    2
     2     1     5    2
     3     1     9    1
     4     1    12    1
     5     2    15   ar
     6     2    26   ar
     7     3    10   ar
     8     3    20   ar
     9     6    19    2
    10     7    24    2
    11     8    11    1
    12     8    19   am
    13     9    20    1
    14    10    25   ar
    15    11    13   ar
    16    11    14   ar
    17    12    15   ar
    18    12    21   ar
    19    13    17   ar
    20    13    23    1
    21    14    18   ar
    22    14    24    1
    23    15    19    1
    24    16    17   ar
    25    16    18   ar
    26    16    27    1
    27    20    22   ar
    28    21    26   ar
    29    22    25   ar
    30    22    28    1
    31    24    30    1
    32    25    29    1
    33     8    31    1
    34     9    32    1
    35    17    33    1
    36    18    34    1
    37    21    35    1
    38    23    36    1
    39    23    37    1
    40    23    38    1
    41    26    39    1
    42    27    40    1
    43    27    41    1
    44    27    42    1
    45    28    43    1
    46    28    44    1
    47    28    45    1
    48    29    46    1
    49    29    47    1
    50    29    48    1
    51    30    49    1
    52    30    50    1
    53    30    51    1
@<TRIPOS>MOLECULE
9911482
 51 53 0 0 0
SMALL
GASTEIGER

@<TRIPOS>ATOM
      1 S           2.2487    1.3222    0.6548 S.O2    1  LIG1        0.0758
      2 S          -0.8249    3.8261   -0.9244 S.2     1  LIG1       -0.0902
      3 O           5.2823   -0.2087   -0.0189 O.2     1  LIG1       -0.3377
      4 O           1.3619    0.3479    1.2473 O.2     1  LIG1       -0.1499
      5 O           3.1956    2.0746    1.4520 O.2     1  LIG1       -0.1499
      6 O          -0.2348    0.1150   -1.2507 O.2     1  LIG1       -0.2692
      7 O          -2.5333    0.9541   -3.1135 O.2     1  LIG1       -0.2923
      8 N          -2.0743    1.1004   -0.2473 N.am    1  LIG1       -0.2802
      9 N           3.1016    0.6889   -0.6689 N.pl3   1  LIG1       -0.1831
     10 N           5.8437   -1.4142    0.3532 N.ar    1  LIG1       -0.0810
     11 C          -3.0003    0.0389   -0.3667 C.ar    1  LIG1        0.0471
     12 C           1.1909    2.5585    0.0343 C.ar    1  LIG1        0.1277
     13 C          -3.8000   -0.2616    0.7604 C.ar    1  LIG1       -0.0283
     14 C          -3.1731   -0.7083   -1.5524 C.ar    1  LIG1        0.0388
     15 C          -0.0677    2.3416   -0.4957 C.ar    1  LIG1        0.1007
     16 C          -4.8204   -2.1284   -0.4420 C.ar    1  LIG1       -0.0494
     17 C          -4.7003   -1.3413    0.7044 C.ar    1  LIG1       -0.0541
     18 C          -4.0649   -1.7968   -1.5706 C.ar    1  LIG1       -0.0466
     19 C          -0.7747    1.0918   -0.7382 C.2     1  LIG1        0.2568
     20 C           3.9536   -0.3745   -0.2496 C.ar    1  LIG1        0.2399
     21 C           1.5366    3.9500    0.0567 C.ar    1  LIG1       -0.0273
     22 C           3.6218   -1.7021   -0.0997 C.ar    1  LIG1        0.0350
     23 C          -3.7517    0.5390    2.0367 C.3     1  LIG1       -0.0379
     24 C          -2.6270   -0.2475   -2.8666 C.2     1  LIG1        0.1619
     25 C           4.8469   -2.3056    0.3039 C.ar    1  LIG1        0.0854
     26 C           0.5295    4.7440   -0.4402 C.ar    1  LIG1       -0.0217
     27 C          -5.7728   -3.2871   -0.4882 C.3     1  LIG1       -0.0397
     28 C           2.3187   -2.3663   -0.3270 C.3     1  LIG1       -0.0330
     29 C           5.1099   -3.7292    0.6216 C.3     1  LIG1       -0.0188
     30 C          -2.3200   -1.2796   -3.9232 C.3     1  LIG1       -0.0013
     31 H          -2.2783    1.8287    0.4225 H       1  LIG1        0.1552
     32 H           3.6951    1.4482   -1.0064 H       1  LIG1        0.1768
     33 H          -5.3126   -1.5727    1.5756 H       1  LIG1        0.0623
     34 H          -4.2248   -2.3680   -2.4820 H       1  LIG1        0.0628
     35 H           2.4712    4.3489    0.4368 H       1  LIG1        0.0643
     36 H          -2.7344    0.8593    2.2786 H       1  LIG1        0.0278
     37 H          -4.0951   -0.0583    2.8889 H       1  LIG1        0.0278
     38 H          -4.3987    1.4170    1.9469 H       1  LIG1        0.0278
     39 H           0.5195    5.8220   -0.5347 H       1  LIG1        0.0694
     40 H          -6.2987   -3.4141    0.4637 H       1  LIG1        0.0278
     41 H          -5.2275   -4.2136   -0.6956 H       1  LIG1        0.0278
     42 H          -6.5239   -3.1282   -1.2684 H       1  LIG1        0.0278
     43 H           1.6654   -1.7630   -0.9626 H       1  LIG1        0.0280
     44 H           1.8092   -2.5479    0.6241 H       1  LIG1        0.0280
     45 H           2.4612   -3.3291   -0.8289 H       1  LIG1        0.0280
     46 H           6.0903   -3.8631    1.0909 H       1  LIG1        0.0294
     47 H           5.0861   -4.3314   -0.2922 H       1  LIG1        0.0294
     48 H           4.3532   -4.1168    1.3110 H       1  LIG1        0.0294
     49 H          -1.5325   -0.8977   -4.5796 H       1  LIG1        0.0309
     50 H          -3.2192   -1.4706   -4.5150 H       1  LIG1        0.0309
     51 H          -1.9586   -2.2082   -3.4752 H       1  LIG1        0.0309
@<TRIPOS>BOND
     1     1     4    2
     2     1     5    2
     3     1     9    1
     4     1    12    1
     5     2    15   ar
     6     2    26   ar
     7     3    10   ar
     8     3    20   ar
     9     6    19    2
    10     7    24    2
    11     8    11    1
    12     8    19   am
    13     9    20    1
    14    10    25   ar
    15    11    13   ar
    16    11    14   ar
    17    12    15   ar
    18    12    21   ar
    19    13    17   ar
    20    13    23    1
    21    14    18   ar
    22    14    24    1
    23    15    19    1
    24    16    17   ar
    25    16    18   ar
    26    16    27    1
    27    20    22   ar
    28    21    26   ar
    29    22    25   ar
    30    22    28    1
    31    24    30    1
    32    25    29    1
    33     8    31    1
    34     9    32    1
    35    17    33    1
    36    18    34    1
    37    21    35    1
    38    23    36    1
    39    23    37    1
    40    23    38    1
    41    26    39    1
    42    27    40    1
    43    27    41    1
    44    27    42    1
    45    28    43    1
    46    28    44    1
    47    28    45    1
    48    29    46    1
    49    29    47    1
    50    29    48    1
    51    30    49    1
    52    30    50    1
    53    30    51    1
@<TRIPOS>MOLECULE
9911482
 51 53 0 0 0
SMALL
GASTEIGER

@<TRIPOS>ATOM
      1 S           2.0505    1.6070   -1.9070 S.O2    1  LIG1        0.0758
      2 S          -0.6921    3.7060    0.5952 S.2     1  LIG1       -0.0902
      3 O          -0.2074   -0.9568   -2.7642 O.2     1  LIG1       -0.3377
      4 O           2.4963    0.5233   -1.0689 O.2     1  LIG1       -0.1499
      5 O           3.0097    2.4847   -2.5508 O.2     1  LIG1       -0.1499
      6 O          -0.1013    0.0075   -0.1260 O.2     1  LIG1       -0.2692
      7 O          -5.2859    1.7915   -2.2256 O.2     1  LIG1       -0.2923
      8 N          -2.1041    1.1482   -0.2092 N.am    1  LIG1       -0.2802
      9 N           1.0439    1.1061   -3.1822 N.pl3   1  LIG1       -0.1831
     10 N          -0.1360   -2.2974   -3.0839 N.ar    1  LIG1       -0.0810
     11 C          -2.9871    0.0404   -0.2774 C.ar    1  LIG1        0.0471
     12 C           1.1396    2.6727   -0.8783 C.ar    1  LIG1        0.1277
     13 C          -2.9001   -1.0603    0.6003 C.ar    1  LIG1       -0.0283
     14 C          -4.0572    0.0801   -1.1969 C.ar    1  LIG1        0.0388
     15 C          -0.0408    2.3466   -0.2334 C.ar    1  LIG1        0.1007
     16 C          -4.8810   -2.0712   -0.4428 C.ar    1  LIG1       -0.0494
     17 C          -3.8293   -2.1164    0.4772 C.ar    1  LIG1       -0.0541
     18 C          -4.9973   -0.9572   -1.2722 C.ar    1  LIG1       -0.0466
     19 C          -0.7196    1.0617   -0.1569 C.2     1  LIG1        0.2568
     20 C           0.8846   -0.3079   -3.2462 C.ar    1  LIG1        0.2399
     21 C           1.5195    4.0360   -0.6506 C.ar    1  LIG1       -0.0273
     22 C           1.7005   -1.2079   -3.8991 C.ar    1  LIG1        0.0350
     23 C          -1.8994   -1.1762    1.7205 C.3     1  LIG1       -0.0379
     24 C          -4.2260    1.1732   -2.1825 C.2     1  LIG1        0.1619
     25 C           1.0204   -2.4495   -3.7365 C.ar    1  LIG1        0.0854
     26 C           0.6129    4.7052    0.1385 C.ar    1  LIG1       -0.0217
     27 C          -5.8630   -3.1994   -0.5525 C.3     1  LIG1       -0.0397
     28 C           2.9978   -0.9878   -4.5770 C.3     1  LIG1       -0.0330
     29 C           1.4394   -3.7937   -4.1979 C.3     1  LIG1       -0.0188
     30 C          -3.0843    1.4783   -3.1163 C.3     1  LIG1       -0.0013
     31 H          -2.4663    2.0458   -0.5095 H       1  LIG1        0.1552
     32 H           1.5316    1.4551   -4.0093 H       1  LIG1        0.1768
     33 H          -3.7395   -2.9788    1.1380 H       1  LIG1        0.0623
     34 H          -5.8088   -0.8999   -1.9958 H       1  LIG1        0.0628
     35 H           2.4118    4.5034   -1.0537 H       1  LIG1        0.0643
     36 H          -1.5892   -0.1962    2.0944 H       1  LIG1        0.0278
     37 H          -1.0262   -1.7497    1.3972 H       1  LIG1        0.0278
     38 H          -2.3446   -1.6932    2.5789 H       1  LIG1        0.0278
     39 H           0.6529    5.7364    0.4647 H       1  LIG1        0.0694
     40 H          -5.7078   -3.9451    0.2342 H       1  LIG1        0.0278
     41 H          -5.7542   -3.6993   -1.5202 H       1  LIG1        0.0278
     42 H          -6.8862   -2.8223   -0.4546 H       1  LIG1        0.0278
     43 H           3.2662    0.0716   -4.6184 H       1  LIG1        0.0280
     44 H           2.9617   -1.3641   -5.6044 H       1  LIG1        0.0280
     45 H           3.7967   -1.5153   -4.0457 H       1  LIG1        0.0280
     46 H           0.7164   -4.5639   -3.9094 H       1  LIG1        0.0294
     47 H           2.4075   -4.0608   -3.7625 H       1  LIG1        0.0294
     48 H           1.5339   -3.8104   -5.2882 H       1  LIG1        0.0294
     49 H          -3.4680    1.5373   -4.1387 H       1  LIG1        0.0309
     50 H          -2.3266    0.6927   -3.0907 H       1  LIG1        0.0309
     51 H          -2.6298    2.4328   -2.8388 H       1  LIG1        0.0309
@<TRIPOS>BOND
     1     1     4    2
     2     1     5    2
     3     1     9    1
     4     1    12    1
     5     2    15   ar
     6     2    26   ar
     7     3    10   ar
     8     3    20   ar
     9     6    19    2
    10     7    24    2
    11     8    11    1
    12     8    19   am
    13     9    20    1
    14    10    25   ar
    15    11    13   ar
    16    11    14   ar
    17    12    15   ar
    18    12    21   ar
    19    13    17   ar
    20    13    23    1
    21    14    18   ar
    22    14    24    1
    23    15    19    1
    24    16    17   ar
    25    16    18   ar
    26    16    27    1
    27    20    22   ar
    28    21    26   ar
    29    22    25   ar
    30    22    28    1
    31    24    30    1
    32    25    29    1
    33     8    31    1
    34     9    32    1
    35    17    33    1
    36    18    34    1
    37    21    35    1
    38    23    36    1
    39    23    37    1
    40    23    38    1
    41    26    39    1
    42    27    40    1
    43    27    41    1
    44    27    42    1
    45    28    43    1
    46    28    44    1
    47    28    45    1
    48    29    46    1
    49    29    47    1
    50    29    48    1
    51    30    49    1
    52    30    50    1
    53    30    51    1
@<TRIPOS>MOLECULE
9911482
 51 53 0 0 0
SMALL
GASTEIGER

@<TRIPOS>ATOM
      1 S           2.3740    1.4538   -0.8770 S.O2    1  LIG1        0.0758
      2 S          -1.0503    3.9240   -0.3047 S.2     1  LIG1       -0.0902
      3 O           3.8359   -0.6474   -3.3134 O.2     1  LIG1       -0.3377
      4 O           2.1010    0.5070    0.1841 O.2     1  LIG1       -0.1499
      5 O           3.6097    2.1995   -0.9394 O.2     1  LIG1       -0.1499
      6 O          -0.4197    0.2566   -1.4449 O.2     1  LIG1       -0.2692
      7 O          -4.1027    0.0647    3.0626 O.2     1  LIG1       -0.2923
      8 N          -2.2000    1.1830   -0.3168 N.am    1  LIG1       -0.2802
      9 N           2.0318    0.7152   -2.3602 N.pl3   1  LIG1       -0.1831
     10 N           4.8966   -0.4792   -4.1878 N.ar    1  LIG1       -0.0810
     11 C          -3.0236    0.0364   -0.3495 C.ar    1  LIG1        0.0471
     12 C           1.1689    2.6848   -0.6279 C.ar    1  LIG1        0.1277
     13 C          -3.4216   -0.5230   -1.5854 C.ar    1  LIG1       -0.0283
     14 C          -3.5558   -0.4906    0.8458 C.ar    1  LIG1        0.0388
     15 C          -0.1970    2.4608   -0.6244 C.ar    1  LIG1        0.1007
     16 C          -4.8104   -2.1607   -0.4104 C.ar    1  LIG1       -0.0494
     17 C          -4.2870   -1.6344   -1.5933 C.ar    1  LIG1       -0.0541
     18 C          -4.4414   -1.5805    0.8048 C.ar    1  LIG1       -0.0466
     19 C          -0.9224    1.2159   -0.8628 C.2     1  LIG1        0.2568
     20 C           3.1816    0.5314   -3.1652 C.ar    1  LIG1        0.2399
     21 C           1.5050    4.0507   -0.3620 C.ar    1  LIG1       -0.0273
     22 C           3.7406    1.4807   -3.9912 C.ar    1  LIG1        0.0350
     23 C          -3.0292    0.0336   -2.9306 C.3     1  LIG1       -0.0379
     24 C          -3.2180    0.0086    2.2097 C.2     1  LIG1        0.1619
     25 C           4.8342    0.7972   -4.5882 C.ar    1  LIG1        0.0854
     26 C           0.3884    4.8311   -0.1744 C.ar    1  LIG1       -0.0217
     27 C          -5.7411   -3.3369   -0.4332 C.3     1  LIG1       -0.0397
     28 C           3.3042    2.8742   -4.2323 C.3     1  LIG1       -0.0330
     29 C           5.8156    1.3270   -5.5633 C.3     1  LIG1       -0.0188
     30 C          -1.8051    0.4218    2.5329 C.3     1  LIG1       -0.0013
     31 H          -2.3696    1.8627    0.4166 H       1  LIG1        0.1552
     32 H           1.5566   -0.1647   -2.1285 H       1  LIG1        0.1768
     33 H          -4.5809   -2.0721   -2.5476 H       1  LIG1        0.0623
     34 H          -4.8403   -1.9852    1.7349 H       1  LIG1        0.0628
     35 H           2.5172    4.4381   -0.3066 H       1  LIG1        0.0643
     36 H          -2.6534    1.0582   -2.8740 H       1  LIG1        0.0278
     37 H          -3.9057    0.0745   -3.5875 H       1  LIG1        0.0278
     38 H          -2.2701   -0.6019   -3.3958 H       1  LIG1        0.0278
     39 H           0.3508    5.8917    0.0396 H       1  LIG1        0.0694
     40 H          -6.0852   -3.5552   -1.4497 H       1  LIG1        0.0278
     41 H          -6.6271   -3.1323    0.1763 H       1  LIG1        0.0278
     42 H          -5.2334   -4.2253   -0.0448 H       1  LIG1        0.0278
     43 H           2.3629    3.1017   -3.7220 H       1  LIG1        0.0280
     44 H           3.1450    3.0422   -5.3020 H       1  LIG1        0.0280
     45 H           4.0606    3.5813   -3.8788 H       1  LIG1        0.0280
     46 H           6.6718    0.6554   -5.6826 H       1  LIG1        0.0294
     47 H           6.1961    2.3000   -5.2359 H       1  LIG1        0.0294
     48 H           5.3427    1.4561   -6.5425 H       1  LIG1        0.0294
     49 H          -1.5606    0.0845    3.5446 H       1  LIG1        0.0309
     50 H          -1.7239    1.5114    2.4946 H       1  LIG1        0.0309
     51 H          -1.0824   -0.0381    1.8550 H       1  LIG1        0.0309
@<TRIPOS>BOND
     1     1     4    2
     2     1     5    2
     3     1     9    1
     4     1    12    1
     5     2    15   ar
     6     2    26   ar
     7     3    10   ar
     8     3    20   ar
     9     6    19    2
    10     7    24    2
    11     8    11    1
    12     8    19   am
    13     9    20    1
    14    10    25   ar
    15    11    13   ar
    16    11    14   ar
    17    12    15   ar
    18    12    21   ar
    19    13    17   ar
    20    13    23    1
    21    14    18   ar
    22    14    24    1
    23    15    19    1
    24    16    17   ar
    25    16    18   ar
    26    16    27    1
    27    20    22   ar
    28    21    26   ar
    29    22    25   ar
    30    22    28    1
    31    24    30    1
    32    25    29    1
    33     8    31    1
    34     9    32    1
    35    17    33    1
    36    18    34    1
    37    21    35    1
    38    23    36    1
    39    23    37    1
    40    23    38    1
    41    26    39    1
    42    27    40    1
    43    27    41    1
    44    27    42    1
    45    28    43    1
    46    28    44    1
    47    28    45    1
    48    29    46    1
    49    29    47    1
    50    29    48    1
    51    30    49    1
    52    30    50    1
    53    30    51    1
@<TRIPOS>MOLECULE
9911482
 51 53 0 0 0
SMALL
GASTEIGER

@<TRIPOS>ATOM
      1 S           2.6188    1.4899   -0.8714 S.O2    1  LIG1        0.0758
      2 S          -0.9014    3.7819   -0.0866 S.2     1  LIG1       -0.0902
      3 O           3.9131   -1.6071    0.5978 O.2     1  LIG1       -0.3377
      4 O           3.7986    2.3174   -0.9735 O.2     1  LIG1       -0.1499
      5 O           2.1432    0.7152   -1.9938 O.2     1  LIG1       -0.1499
      6 O          -0.0091   -0.0272   -0.3180 O.2     1  LIG1       -0.2692
      7 O          -1.9643    0.5297   -2.9314 O.2     1  LIG1       -0.2923
      8 N          -2.0133    1.0732   -0.1067 N.am    1  LIG1       -0.2802
      9 N           2.6973    0.5037    0.5016 N.pl3   1  LIG1       -0.1831
     10 N           5.2042   -2.0778    0.7248 N.ar    1  LIG1       -0.0810
     11 C          -2.8988   -0.0193   -0.2049 C.ar    1  LIG1        0.0471
     12 C           1.3461    2.6463   -0.5701 C.ar    1  LIG1        0.1277
     13 C          -3.8809   -0.1741    0.7959 C.ar    1  LIG1       -0.0283
     14 C          -2.8831   -0.9089   -1.3016 C.ar    1  LIG1        0.0388
     15 C           0.0118    2.3399   -0.3478 C.ar    1  LIG1        0.1007
     16 C          -4.7528   -2.1530   -0.3519 C.ar    1  LIG1       -0.0494
     17 C          -4.7903   -1.2459    0.7102 C.ar    1  LIG1       -0.0541
     18 C          -3.8047   -1.9698   -1.3624 C.ar    1  LIG1       -0.0466
     19 C          -0.6413    1.0291   -0.3042 C.2     1  LIG1        0.2568
     20 C           3.9090   -0.2430    0.6121 C.ar    1  LIG1        0.2399
     21 C           1.6042    4.0555   -0.4983 C.ar    1  LIG1       -0.0273
     22 C           5.1959    0.2040    0.8475 C.ar    1  LIG1        0.0350
     23 C          -3.9879    0.7079    2.0128 C.3     1  LIG1       -0.0379
     24 C          -2.0807   -0.6268   -2.5290 C.2     1  LIG1        0.1619
     25 C           5.9714   -0.9920    0.8574 C.ar    1  LIG1        0.0854
     26 C           0.4671    4.7826   -0.2437 C.ar    1  LIG1       -0.0217
     27 C          -5.7557   -3.2654   -0.4484 C.3     1  LIG1       -0.0397
     28 C           5.7146    1.5769    1.0567 C.3     1  LIG1       -0.0330
     29 C           7.4416   -1.1287    1.0032 C.3     1  LIG1       -0.0188
     30 C          -1.5239   -1.7911   -3.3056 C.3     1  LIG1       -0.0013
     31 H          -2.3879    1.9483    0.2343 H       1  LIG1        0.1552
     32 H           1.8961   -0.1416    0.4385 H       1  LIG1        0.1768
     33 H          -5.5382   -1.3715    1.4932 H       1  LIG1        0.0623
     34 H          -3.8310   -2.6305   -2.2265 H       1  LIG1        0.0628
     35 H           2.5798    4.5099   -0.6313 H       1  LIG1        0.0643
     36 H          -3.2527    1.5146    2.0372 H       1  LIG1        0.0278
     37 H          -3.8340    0.1074    2.9166 H       1  LIG1        0.0278
     38 H          -4.9812    1.1666    2.0545 H       1  LIG1        0.0278
     39 H           0.3770    5.8560   -0.1462 H       1  LIG1        0.0694
     40 H          -6.3203   -3.3780    0.4837 H       1  LIG1        0.0278
     41 H          -5.2510   -4.2172   -0.6444 H       1  LIG1        0.0278
     42 H          -6.4667   -3.0617   -1.2551 H       1  LIG1        0.0278
     43 H           4.9275    2.2675    1.3727 H       1  LIG1        0.0280
     44 H           6.1780    1.9558    0.1405 H       1  LIG1        0.0280
     45 H           6.4802    1.5851    1.8419 H       1  LIG1        0.0280
     46 H           7.7594   -2.1754    0.9450 H       1  LIG1        0.0294
     47 H           7.7732   -0.7275    1.9654 H       1  LIG1        0.0294
     48 H           7.9536   -0.5789    0.2063 H       1  LIG1        0.0294
     49 H          -0.6076   -1.4755   -3.8156 H       1  LIG1        0.0309
     50 H          -2.2547   -2.1179   -4.0506 H       1  LIG1        0.0309
     51 H          -1.2683   -2.6197   -2.6410 H       1  LIG1        0.0309
@<TRIPOS>BOND
     1     1     4    2
     2     1     5    2
     3     1     9    1
     4     1    12    1
     5     2    15   ar
     6     2    26   ar
     7     3    10   ar
     8     3    20   ar
     9     6    19    2
    10     7    24    2
    11     8    11    1
    12     8    19   am
    13     9    20    1
    14    10    25   ar
    15    11    13   ar
    16    11    14   ar
    17    12    15   ar
    18    12    21   ar
    19    13    17   ar
    20    13    23    1
    21    14    18   ar
    22    14    24    1
    23    15    19    1
    24    16    17   ar
    25    16    18   ar
    26    16    27    1
    27    20    22   ar
    28    21    26   ar
    29    22    25   ar
    30    22    28    1
    31    24    30    1
    32    25    29    1
    33     8    31    1
    34     9    32    1
    35    17    33    1
    36    18    34    1
    37    21    35    1
    38    23    36    1
    39    23    37    1
    40    23    38    1
    41    26    39    1
    42    27    40    1
    43    27    41    1
    44    27    42    1
    45    28    43    1
    46    28    44    1
    47    28    45    1
    48    29    46    1
    49    29    47    1
    50    29    48    1
    51    30    49    1
    52    30    50    1
    53    30    51    1
@<TRIPOS>MOLECULE
9911482
 51 53 0 0 0
SMALL
GASTEIGER

@<TRIPOS>ATOM
      1 S           2.2569    1.7678   -1.8450 S.O2    1  LIG1        0.0758
      2 S          -0.8506    3.5699    0.4795 S.2     1  LIG1       -0.0902
      3 O          -0.1505    0.1928   -3.5253 O.2     1  LIG1       -0.3377
      4 O           2.3220    0.4307   -1.3123 O.2     1  LIG1       -0.1499
      5 O           3.4555    2.5847   -1.8783 O.2     1  LIG1       -0.1499
      6 O          -0.1124   -0.0791   -0.3459 O.2     1  LIG1       -0.2692
      7 O          -3.7798    2.2191   -2.0732 O.2     1  LIG1       -0.2923
      8 N          -2.1096    1.0454   -0.4926 N.am    1  LIG1       -0.2802
      9 N           1.7187    1.7870   -3.4464 N.pl3   1  LIG1       -0.1831
     10 N          -0.4808   -0.9661   -4.2067 N.ar    1  LIG1       -0.0810
     11 C          -3.0215   -0.0380   -0.4560 C.ar    1  LIG1        0.0471
     12 C           1.1529    2.6881   -0.8693 C.ar    1  LIG1        0.1277
     13 C          -2.9160   -1.0940    0.4743 C.ar    1  LIG1       -0.0283
     14 C          -4.1238   -0.0128   -1.3475 C.ar    1  LIG1        0.0388
     15 C          -0.0729    2.2780   -0.3690 C.ar    1  LIG1        0.1007
     16 C          -4.9080   -2.1507   -0.4837 C.ar    1  LIG1       -0.0494
     17 C          -3.8443   -2.1527    0.4208 C.ar    1  LIG1       -0.0541
     18 C          -5.0494   -1.0691   -1.3565 C.ar    1  LIG1       -0.0466
     19 C          -0.7313    0.9760   -0.3905 C.2     1  LIG1        0.2568
     20 C           1.1078    0.5773   -3.8646 C.ar    1  LIG1        0.2399
     21 C           1.4314    4.0625   -0.5476 C.ar    1  LIG1       -0.0273
     22 C           1.6507   -0.3376   -4.7412 C.ar    1  LIG1        0.0350
     23 C          -1.8974   -1.1502    1.5827 C.3     1  LIG1       -0.0379
     24 C          -4.3106    1.1307   -2.3014 C.2     1  LIG1        0.1619
     25 C           0.6078   -1.2904   -4.9138 C.ar    1  LIG1        0.0854
     26 C           0.4316    4.6486    0.1890 C.ar    1  LIG1       -0.0217
     27 C          -5.8934   -3.2816   -0.5166 C.3     1  LIG1       -0.0397
     28 C           3.0056   -0.3808   -5.3373 C.3     1  LIG1       -0.0330
     29 C           0.6273   -2.5203   -5.7409 C.3     1  LIG1       -0.0188
     30 C          -5.1728    0.9360   -3.5222 C.3     1  LIG1       -0.0013
     31 H          -2.4590    1.8927   -0.9474 H       1  LIG1        0.1552
     32 H           2.5257    2.0530   -4.0078 H       1  LIG1        0.1768
     33 H          -3.7424   -2.9807    1.1225 H       1  LIG1        0.0623
     34 H          -5.8977   -1.0658   -2.0357 H       1  LIG1        0.0628
     35 H           2.3307    4.5927   -0.8423 H       1  LIG1        0.0643
     36 H          -1.5863   -0.1516    1.9029 H       1  LIG1        0.0278
     37 H          -1.0274   -1.7376    1.2771 H       1  LIG1        0.0278
     38 H          -2.3281   -1.6233    2.4732 H       1  LIG1        0.0278
     39 H           0.3942    5.6616    0.5673 H       1  LIG1        0.0694
     40 H          -5.6905   -4.0158    0.2700 H       1  LIG1        0.0278
     41 H          -5.8416   -3.7968   -1.4810 H       1  LIG1        0.0278
     42 H          -6.9091   -2.9026   -0.3640 H       1  LIG1        0.0278
     43 H           3.6343    0.4463   -4.9953 H       1  LIG1        0.0280
     44 H           2.9482   -0.3325   -6.4289 H       1  LIG1        0.0280
     45 H           3.5107   -1.3123   -5.0594 H       1  LIG1        0.0280
     46 H          -0.3739   -2.9471   -5.8569 H       1  LIG1        0.0294
     47 H           1.2705   -3.2765   -5.2790 H       1  LIG1        0.0294
     48 H           1.0170   -2.3047   -6.7413 H       1  LIG1        0.0294
     49 H          -4.9468    1.7231   -4.2481 H       1  LIG1        0.0309
     50 H          -6.2285    1.0037   -3.2477 H       1  LIG1        0.0309
     51 H          -4.9567   -0.0224   -4.0015 H       1  LIG1        0.0309
@<TRIPOS>BOND
     1     1     4    2
     2     1     5    2
     3     1     9    1
     4     1    12    1
     5     2    15   ar
     6     2    26   ar
     7     3    10   ar
     8     3    20   ar
     9     6    19    2
    10     7    24    2
    11     8    11    1
    12     8    19   am
    13     9    20    1
    14    10    25   ar
    15    11    13   ar
    16    11    14   ar
    17    12    15   ar
    18    12    21   ar
    19    13    17   ar
    20    13    23    1
    21    14    18   ar
    22    14    24    1
    23    15    19    1
    24    16    17   ar
    25    16    18   ar
    26    16    27    1
    27    20    22   ar
    28    21    26   ar
    29    22    25   ar
    30    22    28    1
    31    24    30    1
    32    25    29    1
    33     8    31    1
    34     9    32    1
    35    17    33    1
    36    18    34    1
    37    21    35    1
    38    23    36    1
    39    23    37    1
    40    23    38    1
    41    26    39    1
    42    27    40    1
    43    27    41    1
    44    27    42    1
    45    28    43    1
    46    28    44    1
    47    28    45    1
    48    29    46    1
    49    29    47    1
    50    29    48    1
    51    30    49    1
    52    30    50    1
    53    30    51    1
@<TRIPOS>MOLECULE
9911482
 51 53 0 0 0
SMALL
GASTEIGER

@<TRIPOS>ATOM
      1 S           2.4021    1.1867   -0.7459 S.O2    1  LIG1        0.0758
      2 S          -0.7860    3.9354   -0.1100 S.2     1  LIG1       -0.0902
      3 O           3.5652    2.1907   -3.4553 O.2     1  LIG1       -0.3377
      4 O           1.9268    0.2131    0.2120 O.2     1  LIG1       -0.1499
      5 O           3.7322    1.7477   -0.6595 O.2     1  LIG1       -0.1499
      6 O          -0.4756    0.4257   -1.6314 O.2     1  LIG1       -0.2692
      7 O          -2.7886   -1.1714    3.1301 O.2     1  LIG1       -0.2923
      8 N          -2.0528    1.1848   -0.1217 N.am    1  LIG1       -0.2802
      9 N           2.0731    0.6136   -2.2956 N.pl3   1  LIG1       -0.1831
     10 N           3.5221    3.0257   -4.5527 N.ar    1  LIG1       -0.0810
     11 C          -2.9755    0.1139   -0.2069 C.ar    1  LIG1        0.0471
     12 C           1.3324    2.5354   -0.4619 C.ar    1  LIG1        0.1277
     13 C          -3.4725   -0.3176   -1.4614 C.ar    1  LIG1       -0.0283
     14 C          -3.4469   -0.5236    0.9652 C.ar    1  LIG1        0.0388
     15 C          -0.0482    2.4307   -0.4863 C.ar    1  LIG1        0.1007
     16 C          -4.7918   -2.0669   -0.3709 C.ar    1  LIG1       -0.0494
     17 C          -4.3544   -1.4166   -1.5235 C.ar    1  LIG1       -0.0541
     18 C          -4.3349   -1.6129    0.8666 C.ar    1  LIG1       -0.0466
     19 C          -0.8607    1.2655   -0.8222 C.2     1  LIG1        0.2568
     20 C           2.3757    1.5463   -3.3205 C.ar    1  LIG1        0.2399
     21 C           1.7779    3.8586   -0.1621 C.ar    1  LIG1       -0.0273
     22 C           1.5198    1.9524   -4.3235 C.ar    1  LIG1        0.0350
     23 C          -3.1437    0.3414   -2.7766 C.3     1  LIG1       -0.0379
     24 C          -2.9906   -0.2345    2.3585 C.2     1  LIG1        0.1619
     25 C           2.2989    2.8799   -5.0714 C.ar    1  LIG1        0.0854
     26 C           0.7241    4.7202    0.0441 C.ar    1  LIG1       -0.0217
     27 C          -5.7193   -3.2441   -0.4444 C.3     1  LIG1       -0.0397
     28 C           0.1031    1.5808   -4.5381 C.3     1  LIG1       -0.0330
     29 C           1.9085    3.6742   -6.2590 C.3     1  LIG1       -0.0188
     30 C          -2.8270    1.1841    2.8293 C.3     1  LIG1       -0.0013
     31 H          -2.0674    1.7679    0.6996 H       1  LIG1        0.1552
     32 H           1.1297    0.2057   -2.3170 H       1  LIG1        0.1768
     33 H          -4.7108   -1.7608   -2.4945 H       1  LIG1        0.0623
     34 H          -4.6567   -2.1291    1.7723 H       1  LIG1        0.0628
     35 H           2.8188    4.1600   -0.1005 H       1  LIG1        0.0643
     36 H          -2.8673    1.3921   -2.6549 H       1  LIG1        0.0278
     37 H          -4.0196    0.3362   -3.4361 H       1  LIG1        0.0278
     38 H          -2.3372   -0.1996   -3.2798 H       1  LIG1        0.0278
     39 H           0.7698    5.7751    0.2829 H       1  LIG1        0.0694
     40 H          -6.0465   -3.4352   -1.4717 H       1  LIG1        0.0278
     41 H          -6.6133   -3.0595    0.1602 H       1  LIG1        0.0278
     42 H          -5.2156   -4.1438   -0.0769 H       1  LIG1        0.0278
     43 H          -0.0639    0.5175   -4.3439 H       1  LIG1        0.0280
     44 H          -0.2178    1.7830   -5.5635 H       1  LIG1        0.0280
     45 H          -0.5387    2.1630   -3.8679 H       1  LIG1        0.0280
     46 H           2.7842    3.9687   -6.8461 H       1  LIG1        0.0294
     47 H           1.3829    4.5821   -5.9468 H       1  LIG1        0.0294
     48 H           1.2475    3.1014   -6.9164 H       1  LIG1        0.0294
     49 H          -3.1198    1.2426    3.8821 H       1  LIG1        0.0309
     50 H          -3.4775    1.8652    2.2753 H       1  LIG1        0.0309
     51 H          -1.7791    1.4833    2.7426 H       1  LIG1        0.0309
@<TRIPOS>BOND
     1     1     4    2
     2     1     5    2
     3     1     9    1
     4     1    12    1
     5     2    15   ar
     6     2    26   ar
     7     3    10   ar
     8     3    20   ar
     9     6    19    2
    10     7    24    2
    11     8    11    1
    12     8    19   am
    13     9    20    1
    14    10    25   ar
    15    11    13   ar
    16    11    14   ar
    17    12    15   ar
    18    12    21   ar
    19    13    17   ar
    20    13    23    1
    21    14    18   ar
    22    14    24    1
    23    15    19    1
    24    16    17   ar
    25    16    18   ar
    26    16    27    1
    27    20    22   ar
    28    21    26   ar
    29    22    25   ar
    30    22    28    1
    31    24    30    1
    32    25    29    1
    33     8    31    1
    34     9    32    1
    35    17    33    1
    36    18    34    1
    37    21    35    1
    38    23    36    1
    39    23    37    1
    40    23    38    1
    41    26    39    1
    42    27    40    1
    43    27    41    1
    44    27    42    1
    45    28    43    1
    46    28    44    1
    47    28    45    1
    48    29    46    1
    49    29    47    1
    50    29    48    1
    51    30    49    1
    52    30    50    1
    53    30    51    1
@<TRIPOS>MOLECULE
9911482
 51 53 0 0 0
SMALL
GASTEIGER

@<TRIPOS>ATOM
      1 S           2.4732    1.3782    0.8232 S.O2    1  LIG1        0.0758
      2 S          -0.7436    3.6039   -0.9494 S.2     1  LIG1       -0.0902
      3 O           2.4641    0.9187   -2.6393 O.2     1  LIG1       -0.3377
      4 O           1.7481    0.3905    1.5782 O.2     1  LIG1       -0.1499
      5 O           3.3785    2.2920    1.4951 O.2     1  LIG1       -0.1499
      6 O          -0.3228   -0.1393    0.0998 O.2     1  LIG1       -0.2692
      7 O          -2.5005   -1.3651    2.8294 O.2     1  LIG1       -0.2923
      8 N          -2.1371    1.0868   -0.5193 N.am    1  LIG1       -0.2802
      9 N           3.4128    0.6750   -0.4051 N.pl3   1  LIG1       -0.1831
     10 N           1.6938    0.1930   -3.5255 N.ar    1  LIG1       -0.0810
     11 C          -3.0564    0.0150   -0.4795 C.ar    1  LIG1        0.0471
     12 C           1.3002    2.4644    0.1112 C.ar    1  LIG1        0.1277
     13 C          -3.7931   -0.2803   -1.6485 C.ar    1  LIG1       -0.0283
     14 C          -3.2748   -0.7515    0.6882 C.ar    1  LIG1        0.0388
     15 C          -0.0071    2.1869   -0.2726 C.ar    1  LIG1        0.1007
     16 C          -4.8743   -2.1574   -0.5062 C.ar    1  LIG1       -0.0494
     17 C          -4.6900   -1.3680   -1.6425 C.ar    1  LIG1       -0.0541
     18 C          -4.1702   -1.8357    0.6550 C.ar    1  LIG1       -0.0466
     19 C          -0.7929    0.9528   -0.1903 C.2     1  LIG1        0.2568
     20 C           2.6483    0.2011   -1.5002 C.ar    1  LIG1        0.2399
     21 C           1.6685    3.8289   -0.1649 C.ar    1  LIG1       -0.0273
     22 C           2.0765   -1.0417   -1.6396 C.ar    1  LIG1        0.0350
     23 C          -3.5934    0.4114   -2.9734 C.3     1  LIG1       -0.0379
     24 C          -2.7242   -0.4439    2.0436 C.2     1  LIG1        0.1619
     25 C           1.4791   -0.9873   -2.9306 C.ar    1  LIG1        0.0854
     26 C           0.6487    4.5511   -0.7313 C.ar    1  LIG1       -0.0217
     27 C          -5.8381   -3.3067   -0.5045 C.3     1  LIG1       -0.0397
     28 C           2.0818   -2.1845   -0.6976 C.3     1  LIG1       -0.0330
     29 C           0.7163   -2.0479   -3.6299 C.3     1  LIG1       -0.0188
     30 C          -2.5712    0.9909    2.4812 C.3     1  LIG1       -0.0013
     31 H          -2.3348    1.8622   -1.1407 H       1  LIG1        0.1552
     32 H           4.0589    1.4063   -0.7037 H       1  LIG1        0.1768
     33 H          -5.2344   -1.6148   -2.5539 H       1  LIG1        0.0623
     34 H          -4.3352   -2.4230    1.5591 H       1  LIG1        0.0628
     35 H           2.6379    4.2618    0.0595 H       1  LIG1        0.0643
     36 H          -3.0234    1.3390   -2.9074 H       1  LIG1        0.0278
     37 H          -4.5635    0.6675   -3.4130 H       1  LIG1        0.0278
     38 H          -3.0603   -0.2582   -3.6574 H       1  LIG1        0.0278
     39 H           0.6596    5.5928   -1.0248 H       1  LIG1        0.0694
     40 H          -6.1598   -3.5602   -1.5199 H       1  LIG1        0.0278
     41 H          -6.7252   -3.0515    0.0836 H       1  LIG1        0.0278
     42 H          -5.3673   -4.1978   -0.0765 H       1  LIG1        0.0278
     43 H           2.6382   -1.9601    0.2170 H       1  LIG1        0.0280
     44 H           2.5526   -3.0555   -1.1660 H       1  LIG1        0.0280
     45 H           1.0606   -2.4597   -0.4174 H       1  LIG1        0.0280
     46 H           0.3129   -1.6925   -4.5839 H       1  LIG1        0.0294
     47 H          -0.1226   -2.3868   -3.0142 H       1  LIG1        0.0294
     48 H           1.3637   -2.9063   -3.8367 H       1  LIG1        0.0294
     49 H          -2.9419    1.0839    3.5070 H       1  LIG1        0.0309
     50 H          -3.1674    1.6709    1.8682 H       1  LIG1        0.0309
     51 H          -1.5184    1.2791    2.4591 H       1  LIG1        0.0309
@<TRIPOS>BOND
     1     1     4    2
     2     1     5    2
     3     1     9    1
     4     1    12    1
     5     2    15   ar
     6     2    26   ar
     7     3    10   ar
     8     3    20   ar
     9     6    19    2
    10     7    24    2
    11     8    11    1
    12     8    19   am
    13     9    20    1
    14    10    25   ar
    15    11    13   ar
    16    11    14   ar
    17    12    15   ar
    18    12    21   ar
    19    13    17   ar
    20    13    23    1
    21    14    18   ar
    22    14    24    1
    23    15    19    1
    24    16    17   ar
    25    16    18   ar
    26    16    27    1
    27    20    22   ar
    28    21    26   ar
    29    22    25   ar
    30    22    28    1
    31    24    30    1
    32    25    29    1
    33     8    31    1
    34     9    32    1
    35    17    33    1
    36    18    34    1
    37    21    35    1
    38    23    36    1
    39    23    37    1
    40    23    38    1
    41    26    39    1
    42    27    40    1
    43    27    41    1
    44    27    42    1
    45    28    43    1
    46    28    44    1
    47    28    45    1
    48    29    46    1
    49    29    47    1
    50    29    48    1
    51    30    49    1
    52    30    50    1
    53    30    51    1
@<TRIPOS>MOLECULE
9911482
 51 53 0 0 0
SMALL
GASTEIGER

@<TRIPOS>ATOM
      1 S           2.0293    1.7368   -1.7730 S.O2    1  LIG1        0.0758
      2 S          -0.8055    3.6850    0.7171 S.2     1  LIG1       -0.0902
      3 O           4.2630    2.0859   -4.4958 O.2     1  LIG1       -0.3377
      4 O           1.1224    1.5029   -2.8733 O.2     1  LIG1       -0.1499
      5 O           2.5536    0.6879   -0.9305 O.2     1  LIG1       -0.1499
      6 O          -0.2207    0.0523    0.0428 O.2     1  LIG1       -0.2692
      7 O          -3.3158    1.7312   -2.8468 O.2     1  LIG1       -0.2923
      8 N          -2.1374    1.1805   -0.5530 N.am    1  LIG1       -0.2802
      9 N           3.3960    2.6218   -2.2753 N.pl3   1  LIG1       -0.1831
     10 N           4.1879    2.5685   -5.7872 N.ar    1  LIG1       -0.0810
     11 C          -3.0120    0.0648   -0.5139 C.ar    1  LIG1        0.0471
     12 C           1.1122    2.7421   -0.7001 C.ar    1  LIG1        0.1277
     13 C          -3.1895   -0.6902    0.6636 C.ar    1  LIG1       -0.0283
     14 C          -3.7672   -0.2577   -1.6629 C.ar    1  LIG1        0.0388
     15 C          -0.1161    2.3886   -0.1755 C.ar    1  LIG1        0.1007
     16 C          -4.8069   -2.1209   -0.4937 C.ar    1  LIG1       -0.0494
     17 C          -4.0684   -1.7904    0.6452 C.ar    1  LIG1       -0.0541
     18 C          -4.6515   -1.3481   -1.6476 C.ar    1  LIG1       -0.0466
     19 C          -0.7970    1.1056   -0.2096 C.2     1  LIG1        0.2568
     20 C           3.4625    2.8236   -3.6824 C.ar    1  LIG1        0.2399
     21 C           1.5230    4.0490   -0.2919 C.ar    1  LIG1       -0.0273
     22 C           2.8831    3.8419   -4.4084 C.ar    1  LIG1        0.0350
     23 C          -2.5391   -0.3685    1.9841 C.3     1  LIG1       -0.0379
     24 C          -3.6054    0.5365   -2.9158 C.2     1  LIG1        0.1619
     25 C           3.3633    3.6201   -5.7313 C.ar    1  LIG1        0.0854
     26 C           0.5678    4.6724    0.4785 C.ar    1  LIG1       -0.0217
     27 C          -5.7394   -3.2973   -0.4905 C.3     1  LIG1       -0.0397
     28 C           2.0069    4.9440   -3.9561 C.3     1  LIG1       -0.0330
     29 C           3.0868    4.4157   -6.9513 C.3     1  LIG1       -0.0188
     30 C          -3.8040   -0.1539   -4.2410 C.3     1  LIG1       -0.0013
     31 H          -2.3430    1.8741   -1.2755 H       1  LIG1        0.1552
     32 H           4.1809    2.0288   -1.9893 H       1  LIG1        0.1768
     33 H          -4.1934   -2.3826    1.5538 H       1  LIG1        0.0623
     34 H          -5.2353   -1.6031   -2.5286 H       1  LIG1        0.0628
     35 H           2.4618    4.5191   -0.5595 H       1  LIG1        0.0643
     36 H          -2.0893    0.6261    2.0110 H       1  LIG1        0.0278
     37 H          -1.7723   -1.1126    2.2189 H       1  LIG1        0.0278
     38 H          -3.2936   -0.3759    2.7800 H       1  LIG1        0.0278
     39 H           0.6066    5.6631    0.9119 H       1  LIG1        0.0694
     40 H          -5.9042   -3.6752    0.5242 H       1  LIG1        0.0278
     41 H          -5.3224   -4.1085   -1.0950 H       1  LIG1        0.0278
     42 H          -6.7153   -3.0104   -0.8957 H       1  LIG1        0.0278
     43 H           2.0916    5.1127   -2.8810 H       1  LIG1        0.0280
     44 H           0.9614    4.7259   -4.1925 H       1  LIG1        0.0280
     45 H           2.2824    5.8829   -4.4486 H       1  LIG1        0.0280
     46 H           3.4707    3.9243   -7.8512 H       1  LIG1        0.0294
     47 H           3.5602    5.4003   -6.8754 H       1  LIG1        0.0294
     48 H           2.0097    4.5613   -7.0802 H       1  LIG1        0.0294
     49 H          -3.2231    0.3693   -5.0065 H       1  LIG1        0.0309
     50 H          -4.8616   -0.1352   -4.5148 H       1  LIG1        0.0309
     51 H          -3.4383   -1.1842   -4.2040 H       1  LIG1        0.0309
@<TRIPOS>BOND
     1     1     4    2
     2     1     5    2
     3     1     9    1
     4     1    12    1
     5     2    15   ar
     6     2    26   ar
     7     3    10   ar
     8     3    20   ar
     9     6    19    2
    10     7    24    2
    11     8    11    1
    12     8    19   am
    13     9    20    1
    14    10    25   ar
    15    11    13   ar
    16    11    14   ar
    17    12    15   ar
    18    12    21   ar
    19    13    17   ar
    20    13    23    1
    21    14    18   ar
    22    14    24    1
    23    15    19    1
    24    16    17   ar
    25    16    18   ar
    26    16    27    1
    27    20    22   ar
    28    21    26   ar
    29    22    25   ar
    30    22    28    1
    31    24    30    1
    32    25    29    1
    33     8    31    1
    34     9    32    1
    35    17    33    1
    36    18    34    1
    37    21    35    1
    38    23    36    1
    39    23    37    1
    40    23    38    1
    41    26    39    1
    42    27    40    1
    43    27    41    1
    44    27    42    1
    45    28    43    1
    46    28    44    1
    47    28    45    1
    48    29    46    1
    49    29    47    1
    50    29    48    1
    51    30    49    1
    52    30    50    1
    53    30    51    1
@<TRIPOS>MOLECULE
9911482
 51 53 0 0 0
SMALL
GASTEIGER

@<TRIPOS>ATOM
      1 S           2.4953    1.5720    0.7149 S.O2    1  LIG1        0.0758
      2 S          -0.8883    3.7265   -0.7476 S.2     1  LIG1       -0.0902
      3 O           2.7095   -1.1488    3.1300 O.2     1  LIG1       -0.3377
      4 O           3.6152    2.4393    1.0055 O.2     1  LIG1       -0.1499
      5 O           2.5763    0.5512   -0.3070 O.2     1  LIG1       -0.1499
      6 O          -0.1330    0.1009    0.5285 O.2     1  LIG1       -0.2692
      7 O          -2.1673    0.0136    2.5994 O.2     1  LIG1       -0.2923
      8 N          -2.0405    1.0467   -0.3634 N.am    1  LIG1       -0.2802
      9 N           1.8690    0.9133    2.1398 N.pl3   1  LIG1       -0.1831
     10 N           3.7442   -1.5833    3.9342 N.ar    1  LIG1       -0.0810
     11 C          -2.9623   -0.0292   -0.3164 C.ar    1  LIG1        0.0471
     12 C           1.2913    2.6731    0.0937 C.ar    1  LIG1        0.1277
     13 C          -3.9719   -0.0700   -1.3113 C.ar    1  LIG1       -0.0283
     14 C          -2.9476   -1.0504    0.6581 C.ar    1  LIG1        0.0388
     15 C          -0.0389    2.3542   -0.1379 C.ar    1  LIG1        0.1007
     16 C          -4.8520   -2.1596   -0.3815 C.ar    1  LIG1       -0.0494
     17 C          -4.9022   -1.1314   -1.3226 C.ar    1  LIG1       -0.0541
     18 C          -3.8771   -2.1062    0.6140 C.ar    1  LIG1       -0.0466
     19 C          -0.7230    1.0735    0.0663 C.2     1  LIG1        0.2568
     20 C           2.8225    0.1898    2.9105 C.ar    1  LIG1        0.2399
     21 C           1.5979    4.0330   -0.2369 C.ar    1  LIG1       -0.0273
     22 C           3.8920    0.6776    3.6348 C.ar    1  LIG1        0.0350
     23 C          -4.1519    0.9684   -2.3921 C.3     1  LIG1       -0.0379
     24 C          -2.1227   -0.9867    1.8885 C.2     1  LIG1        0.1619
     25 C           4.4510   -0.4884    4.2323 C.ar    1  LIG1        0.0854
     26 C           0.4994    4.7146   -0.7025 C.ar    1  LIG1       -0.0217
     27 C          -5.8529   -3.2767   -0.3998 C.3     1  LIG1       -0.0397
     28 C           4.3689    2.0698    3.8082 C.3     1  LIG1       -0.0330
     29 C           5.6451   -0.5855    5.1055 C.3     1  LIG1       -0.0188
     30 C          -1.3037   -2.2001    2.2479 C.3     1  LIG1       -0.0013
     31 H          -2.3226    1.8659   -0.8831 H       1  LIG1        0.1552
     32 H           1.1021    0.2820    1.8596 H       1  LIG1        0.1768
     33 H          -5.6788   -1.1501   -2.0879 H       1  LIG1        0.0623
     34 H          -3.8755   -2.8686    1.3912 H       1  LIG1        0.0628
     35 H           2.5784    4.4856   -0.1326 H       1  LIG1        0.0643
     36 H          -3.2661    1.5822   -2.5647 H       1  LIG1        0.0278
     37 H          -4.9902    1.6249   -2.1372 H       1  LIG1        0.0278
     38 H          -4.3671    0.4800   -3.3497 H       1  LIG1        0.0278
     39 H           0.4486    5.7485   -1.0179 H       1  LIG1        0.0694
     40 H          -6.5148   -3.2093   -1.2696 H       1  LIG1        0.0278
     41 H          -6.4741   -3.2408    0.5008 H       1  LIG1        0.0278
     42 H          -5.3400   -4.2428   -0.4462 H       1  LIG1        0.0278
     43 H           3.5729    2.7971    3.6227 H       1  LIG1        0.0280
     44 H           5.2041    2.2750    3.1310 H       1  LIG1        0.0280
     45 H           4.7220    2.2352    4.8315 H       1  LIG1        0.0280
     46 H           5.8318   -1.6160    5.4245 H       1  LIG1        0.0294
     47 H           5.5142    0.0266    6.0037 H       1  LIG1        0.0294
     48 H           6.5338   -0.2304    4.5737 H       1  LIG1        0.0294
     49 H          -0.3354   -1.8756    2.6389 H       1  LIG1        0.0309
     50 H          -1.1169   -2.8211    1.3670 H       1  LIG1        0.0309
     51 H          -1.8309   -2.7858    3.0047 H       1  LIG1        0.0309
@<TRIPOS>BOND
     1     1     4    2
     2     1     5    2
     3     1     9    1
     4     1    12    1
     5     2    15   ar
     6     2    26   ar
     7     3    10   ar
     8     3    20   ar
     9     6    19    2
    10     7    24    2
    11     8    11    1
    12     8    19   am
    13     9    20    1
    14    10    25   ar
    15    11    13   ar
    16    11    14   ar
    17    12    15   ar
    18    12    21   ar
    19    13    17   ar
    20    13    23    1
    21    14    18   ar
    22    14    24    1
    23    15    19    1
    24    16    17   ar
    25    16    18   ar
    26    16    27    1
    27    20    22   ar
    28    21    26   ar
    29    22    25   ar
    30    22    28    1
    31    24    30    1
    32    25    29    1
    33     8    31    1
    34     9    32    1
    35    17    33    1
    36    18    34    1
    37    21    35    1
    38    23    36    1
    39    23    37    1
    40    23    38    1
    41    26    39    1
    42    27    40    1
    43    27    41    1
    44    27    42    1
    45    28    43    1
    46    28    44    1
    47    28    45    1
    48    29    46    1
    49    29    47    1
    50    29    48    1
    51    30    49    1
    52    30    50    1
    53    30    51    1
@<TRIPOS>MOLECULE
9911482
 51 53 0 0 0
SMALL
GASTEIGER

@<TRIPOS>ATOM
      1 S           2.1591    1.3453    0.6954 S.O2    1  LIG1        0.0758
      2 S          -0.8588    3.8491   -0.9656 S.2     1  LIG1       -0.0902
      3 O           2.2066    1.0375   -2.6048 O.2     1  LIG1       -0.3377
      4 O           1.2777    0.3176    1.2010 O.2     1  LIG1       -0.1499
      5 O           2.9876    2.0929    1.6248 O.2     1  LIG1       -0.1499
      6 O          -0.4373    0.1173   -1.1065 O.2     1  LIG1       -0.2692
      7 O          -3.0184    1.4259    2.3293 O.2     1  LIG1       -0.2923
      8 N          -2.2113    1.2041   -0.1272 N.am    1  LIG1       -0.2802
      9 N           3.2291    0.6442   -0.4093 N.pl3   1  LIG1       -0.1831
     10 N           1.6493    0.2977   -3.6314 N.ar    1  LIG1       -0.0810
     11 C          -3.1182    0.1191   -0.2196 C.ar    1  LIG1        0.0471
     12 C           1.1432    2.5575   -0.0087 C.ar    1  LIG1        0.1277
     13 C          -3.4316   -0.4655   -1.4660 C.ar    1  LIG1       -0.0283
     14 C          -3.7450   -0.3582    0.9529 C.ar    1  LIG1        0.0388
     15 C          -0.1515    2.3650   -0.4570 C.ar    1  LIG1        0.1007
     16 C          -4.8959   -2.0714   -0.3434 C.ar    1  LIG1       -0.0494
     17 C          -4.2978   -1.5731   -1.5041 C.ar    1  LIG1       -0.0541
     18 C          -4.6185   -1.4560    0.8809 C.ar    1  LIG1       -0.0466
     19 C          -0.9141    1.1362   -0.6101 C.2     1  LIG1        0.2568
     20 C           2.5958    0.2075   -1.6015 C.ar    1  LIG1        0.2399
     21 C           1.5565    3.9255   -0.1201 C.ar    1  LIG1       -0.0273
     22 C           2.3138   -1.0968   -1.9435 C.ar    1  LIG1        0.0350
     23 C          -2.9314    0.0531   -2.7901 C.3     1  LIG1       -0.0379
     24 C          -3.4594    0.2755    2.2795 C.2     1  LIG1        0.1619
     25 C           1.6749   -0.9728   -3.2100 C.ar    1  LIG1        0.0854
     26 C           0.5619    4.7306   -0.6246 C.ar    1  LIG1       -0.0217
     27 C          -5.8014   -3.2668   -0.4023 C.3     1  LIG1       -0.0397
     28 C           2.4931   -2.3358   -1.1528 C.3     1  LIG1       -0.0330
     29 C           1.0412   -2.0423   -4.0165 C.3     1  LIG1       -0.0188
     30 C          -3.7344   -0.5018    3.5406 C.3     1  LIG1       -0.0013
     31 H          -2.3037    1.7827    0.7119 H       1  LIG1        0.1552
     32 H           3.6948   -0.1092    0.0906 H       1  LIG1        0.1768
     33 H          -4.5216   -2.0374   -2.4645 H       1  LIG1        0.0623
     34 H          -5.1003   -1.8462    1.7742 H       1  LIG1        0.0628
     35 H           2.5289    4.3001    0.1809 H       1  LIG1        0.0643
     36 H          -2.5106    1.0603   -2.7224 H       1  LIG1        0.0278
     37 H          -3.7647    0.1245   -3.4980 H       1  LIG1        0.0278
     38 H          -2.1765   -0.6223   -3.2014 H       1  LIG1        0.0278
     39 H           0.5982    5.7972   -0.8009 H       1  LIG1        0.0694
     40 H          -6.1272   -3.4710   -1.4278 H       1  LIG1        0.0278
     41 H          -6.7004   -3.0958    0.1987 H       1  LIG1        0.0278
     42 H          -5.2785   -4.1507   -0.0240 H       1  LIG1        0.0278
     43 H           3.1511   -2.1838   -0.2922 H       1  LIG1        0.0280
     44 H           2.9322   -3.1267   -1.7687 H       1  LIG1        0.0280
     45 H           1.5265   -2.6867   -0.7781 H       1  LIG1        0.0280
     46 H           0.6871   -1.6664   -4.9821 H       1  LIG1        0.0294
     47 H           0.1808   -2.4565   -3.4805 H       1  LIG1        0.0294
     48 H           1.7501   -2.8524   -4.2066 H       1  LIG1        0.0294
     49 H          -3.1908   -0.0420    4.3710 H       1  LIG1        0.0309
     50 H          -3.3776   -1.5315    3.4468 H       1  LIG1        0.0309
     51 H          -4.8037   -0.4812    3.7650 H       1  LIG1        0.0309
@<TRIPOS>BOND
     1     1     4    2
     2     1     5    2
     3     1     9    1
     4     1    12    1
     5     2    15   ar
     6     2    26   ar
     7     3    10   ar
     8     3    20   ar
     9     6    19    2
    10     7    24    2
    11     8    11    1
    12     8    19   am
    13     9    20    1
    14    10    25   ar
    15    11    13   ar
    16    11    14   ar
    17    12    15   ar
    18    12    21   ar
    19    13    17   ar
    20    13    23    1
    21    14    18   ar
    22    14    24    1
    23    15    19    1
    24    16    17   ar
    25    16    18   ar
    26    16    27    1
    27    20    22   ar
    28    21    26   ar
    29    22    25   ar
    30    22    28    1
    31    24    30    1
    32    25    29    1
    33     8    31    1
    34     9    32    1
    35    17    33    1
    36    18    34    1
    37    21    35    1
    38    23    36    1
    39    23    37    1
    40    23    38    1
    41    26    39    1
    42    27    40    1
    43    27    41    1
    44    27    42    1
    45    28    43    1
    46    28    44    1
    47    28    45    1
    48    29    46    1
    49    29    47    1
    50    29    48    1
    51    30    49    1
    52    30    50    1
    53    30    51    1
@<TRIPOS>MOLECULE
9911482
 51 53 0 0 0
SMALL
GASTEIGER

@<TRIPOS>ATOM
      1 S           2.3328    1.2793    0.7081 S.O2    1  LIG1        0.0758
      2 S          -0.8402    3.7963   -0.6113 S.2     1  LIG1       -0.0902
      3 O           1.7332    0.6753   -2.7286 O.2     1  LIG1       -0.3377
      4 O           1.6279    0.7091    1.8348 O.2     1  LIG1       -0.1499
      5 O           3.5973    1.9609    0.8830 O.2     1  LIG1       -0.1499
      6 O          -0.1942   -0.0365   -0.5006 O.2     1  LIG1       -0.2692
      7 O          -3.2498   -0.6590   -3.9543 O.2     1  LIG1       -0.2923
      8 N          -2.1652    1.1520   -0.3582 N.am    1  LIG1       -0.2802
      9 N           2.4787    0.0895   -0.4879 N.pl3   1  LIG1       -0.1831
     10 N           2.2059    1.3020   -3.8599 N.ar    1  LIG1       -0.0810
     11 C          -3.0013    0.0161   -0.3938 C.ar    1  LIG1        0.0471
     12 C           1.2414    2.5275    0.1729 C.ar    1  LIG1        0.1277
     13 C          -3.4154   -0.5663    0.8224 C.ar    1  LIG1       -0.0283
     14 C          -3.4979   -0.4819   -1.6170 C.ar    1  LIG1        0.0388
     15 C          -0.0687    2.3064   -0.2192 C.ar    1  LIG1        0.1007
     16 C          -4.8258   -2.1402   -0.4083 C.ar    1  LIG1       -0.0494
     17 C          -4.3226   -1.6424    0.7956 C.ar    1  LIG1       -0.0541
     18 C          -4.4011   -1.5605   -1.6066 C.ar    1  LIG1       -0.0466
     19 C          -0.7804    1.0394   -0.3747 C.2     1  LIG1        0.2568
     20 C           2.7075    0.6370   -1.7813 C.ar    1  LIG1        0.2399
     21 C           1.6104    3.9089    0.1137 C.ar    1  LIG1       -0.0273
     22 C           3.8716    1.1615   -2.2999 C.ar    1  LIG1        0.0350
     23 C          -2.8861   -0.1516    2.1703 C.3     1  LIG1       -0.0379
     24 C          -3.1965    0.0799   -2.9704 C.2     1  LIG1        0.1619
     25 C           3.4908    1.5735   -3.6101 C.ar    1  LIG1        0.0854
     26 C           0.5739    4.7020   -0.3187 C.ar    1  LIG1       -0.0217
     27 C          -5.8188   -3.2647   -0.4324 C.3     1  LIG1       -0.0397
     28 C           5.2193    1.2636   -1.6942 C.3     1  LIG1       -0.0330
     29 C           4.3252    2.2145   -4.6529 C.3     1  LIG1       -0.0188
     30 C          -2.8958    1.5448   -3.1359 C.3     1  LIG1       -0.0013
     31 H          -2.4795    1.9071    0.2424 H       1  LIG1        0.1552
     32 H           1.5784   -0.4167   -0.4870 H       1  LIG1        0.1768
     33 H          -4.6324   -2.1019    1.7340 H       1  LIG1        0.0623
     34 H          -4.7967   -1.9401   -2.5494 H       1  LIG1        0.0628
     35 H           2.5906    4.2990    0.3679 H       1  LIG1        0.0643
     36 H          -2.2221    0.7148    2.1276 H       1  LIG1        0.0278
     37 H          -2.3180   -0.9779    2.6118 H       1  LIG1        0.0278
     38 H          -3.7168    0.1058    2.8352 H       1  LIG1        0.0278
     39 H           0.5772    5.7738   -0.4691 H       1  LIG1        0.0694
     40 H          -6.0120   -3.6525    0.5731 H       1  LIG1        0.0278
     41 H          -5.4424   -4.0910   -1.0438 H       1  LIG1        0.0278
     42 H          -6.7704   -2.9153   -0.8466 H       1  LIG1        0.0278
     43 H           5.2775    0.7647   -0.7234 H       1  LIG1        0.0280
     44 H           5.5000    2.3135   -1.5615 H       1  LIG1        0.0280
     45 H           5.9633    0.7925   -2.3457 H       1  LIG1        0.0280
     46 H           3.7387    2.4533   -5.5464 H       1  LIG1        0.0294
     47 H           5.1390    1.5467   -4.9521 H       1  LIG1        0.0294
     48 H           4.7596    3.1457   -4.2764 H       1  LIG1        0.0294
     49 H          -3.1966    1.8553   -4.1420 H       1  LIG1        0.0309
     50 H          -1.8241    1.7212   -3.0270 H       1  LIG1        0.0309
     51 H          -3.4744    2.1496   -2.4331 H       1  LIG1        0.0309
@<TRIPOS>BOND
     1     1     4    2
     2     1     5    2
     3     1     9    1
     4     1    12    1
     5     2    15   ar
     6     2    26   ar
     7     3    10   ar
     8     3    20   ar
     9     6    19    2
    10     7    24    2
    11     8    11    1
    12     8    19   am
    13     9    20    1
    14    10    25   ar
    15    11    13   ar
    16    11    14   ar
    17    12    15   ar
    18    12    21   ar
    19    13    17   ar
    20    13    23    1
    21    14    18   ar
    22    14    24    1
    23    15    19    1
    24    16    17   ar
    25    16    18   ar
    26    16    27    1
    27    20    22   ar
    28    21    26   ar
    29    22    25   ar
    30    22    28    1
    31    24    30    1
    32    25    29    1
    33     8    31    1
    34     9    32    1
    35    17    33    1
    36    18    34    1
    37    21    35    1
    38    23    36    1
    39    23    37    1
    40    23    38    1
    41    26    39    1
    42    27    40    1
    43    27    41    1
    44    27    42    1
    45    28    43    1
    46    28    44    1
    47    28    45    1
    48    29    46    1
    49    29    47    1
    50    29    48    1
    51    30    49    1
    52    30    50    1
    53    30    51    1
@<TRIPOS>MOLECULE
9911482
 51 53 0 0 0
SMALL
GASTEIGER

@<TRIPOS>ATOM
      1 S           2.3229    1.2931    0.7188 S.O2    1  LIG1        0.0758
      2 S          -0.7696    3.7737   -0.8416 S.2     1  LIG1       -0.0902
      3 O           2.8368   -2.2045    0.4384 O.2     1  LIG1       -0.3377
      4 O           1.5713    0.8171    1.8595 O.2     1  LIG1       -0.1499
      5 O           3.5921    1.9729    0.8742 O.2     1  LIG1       -0.1499
      6 O          -0.1569   -0.0437   -0.5753 O.2     1  LIG1       -0.2692
      7 O          -1.7144    0.5720   -2.9963 O.2     1  LIG1       -0.2923
      8 N          -2.1189    1.1474   -0.3348 N.am    1  LIG1       -0.2802
      9 N           2.4705    0.0522   -0.4234 N.pl3   1  LIG1       -0.1831
     10 N           3.8830   -3.0158    0.8326 N.ar    1  LIG1       -0.0810
     11 C          -2.9975    0.0468   -0.4073 C.ar    1  LIG1        0.0471
     12 C           1.2772    2.5228    0.0644 C.ar    1  LIG1        0.1277
     13 C          -3.8446   -0.1868    0.7002 C.ar    1  LIG1       -0.0283
     14 C          -3.0939   -0.7763   -1.5582 C.ar    1  LIG1        0.0388
     15 C          -0.0204    2.2990   -0.3648 C.ar    1  LIG1        0.1007
     16 C          -4.8078   -2.1205   -0.4333 C.ar    1  LIG1       -0.0494
     17 C          -4.7434   -1.2668    0.6667 C.ar    1  LIG1       -0.0541
     18 C          -3.9836   -1.8686   -1.5362 C.ar    1  LIG1       -0.0466
     19 C          -0.7410    1.0327   -0.4676 C.2     1  LIG1        0.2568
     20 C           3.3155   -0.9937    0.0465 C.ar    1  LIG1        0.2399
     21 C           1.6475    3.9039   -0.0074 C.ar    1  LIG1       -0.0273
     22 C           4.6932   -1.0062    0.1046 C.ar    1  LIG1        0.0350
     23 C          -3.8338    0.6453    1.9574 C.3     1  LIG1       -0.0379
     24 C          -2.4232   -0.4245   -2.8684 C.2     1  LIG1        0.1619
     25 C           4.9914   -2.2945    0.6331 C.ar    1  LIG1        0.0854
     26 C           0.6277    4.6887   -0.4931 C.ar    1  LIG1       -0.0217
     27 C          -5.7681   -3.2741   -0.4606 C.3     1  LIG1       -0.0397
     28 C           5.6644    0.0356   -0.3008 C.3     1  LIG1       -0.0330
     29 C           6.3208   -2.8742    0.9381 C.3     1  LIG1       -0.0188
     30 C          -2.7184   -1.2681   -4.0872 C.3     1  LIG1       -0.0013
     31 H          -2.4339    1.9784    0.1470 H       1  LIG1        0.1552
     32 H           1.5183   -0.3268   -0.5631 H       1  LIG1        0.1768
     33 H          -5.3914   -1.4478    1.5239 H       1  LIG1        0.0623
     34 H          -4.0820   -2.5319   -2.3915 H       1  LIG1        0.0628
     35 H           2.6118    4.3005    0.2917 H       1  LIG1        0.0643
     36 H          -2.9737    1.3149    2.0287 H       1  LIG1        0.0278
     37 H          -3.7891   -0.0072    2.8365 H       1  LIG1        0.0278
     38 H          -4.7454    1.2492    2.0091 H       1  LIG1        0.0278
     39 H           0.6334    5.7590   -0.6524 H       1  LIG1        0.0694
     40 H          -6.3261   -3.3553    0.4780 H       1  LIG1        0.0278
     41 H          -5.2267   -4.2134   -0.6109 H       1  LIG1        0.0278
     42 H          -6.4920   -3.1411   -1.2712 H       1  LIG1        0.0278
     43 H           5.1983    0.8145   -0.9113 H       1  LIG1        0.0280
     44 H           6.4687   -0.4048   -0.8997 H       1  LIG1        0.0280
     45 H           6.1137    0.5040    0.5803 H       1  LIG1        0.0280
     46 H           6.2344   -3.8607    1.4054 H       1  LIG1        0.0294
     47 H           6.8729   -2.2243    1.6248 H       1  LIG1        0.0294
     48 H           6.9075   -2.9846    0.0206 H       1  LIG1        0.0294
     49 H          -2.1484   -0.8820   -4.9389 H       1  LIG1        0.0309
     50 H          -3.7804   -1.1980   -4.3408 H       1  LIG1        0.0309
     51 H          -2.4164   -2.3053   -3.9275 H       1  LIG1        0.0309
@<TRIPOS>BOND
     1     1     4    2
     2     1     5    2
     3     1     9    1
     4     1    12    1
     5     2    15   ar
     6     2    26   ar
     7     3    10   ar
     8     3    20   ar
     9     6    19    2
    10     7    24    2
    11     8    11    1
    12     8    19   am
    13     9    20    1
    14    10    25   ar
    15    11    13   ar
    16    11    14   ar
    17    12    15   ar
    18    12    21   ar
    19    13    17   ar
    20    13    23    1
    21    14    18   ar
    22    14    24    1
    23    15    19    1
    24    16    17   ar
    25    16    18   ar
    26    16    27    1
    27    20    22   ar
    28    21    26   ar
    29    22    25   ar
    30    22    28    1
    31    24    30    1
    32    25    29    1
    33     8    31    1
    34     9    32    1
    35    17    33    1
    36    18    34    1
    37    21    35    1
    38    23    36    1
    39    23    37    1
    40    23    38    1
    41    26    39    1
    42    27    40    1
    43    27    41    1
    44    27    42    1
    45    28    43    1
    46    28    44    1
    47    28    45    1
    48    29    46    1
    49    29    47    1
    50    29    48    1
    51    30    49    1
    52    30    50    1
    53    30    51    1
@<TRIPOS>MOLECULE
9911482
 51 53 0 0 0
SMALL
GASTEIGER

@<TRIPOS>ATOM
      1 S           2.2600    1.3654    0.7248 S.O2    1  LIG1        0.0758
      2 S          -0.7961    3.8307   -0.9374 S.2     1  LIG1       -0.0902
      3 O           4.5033   -0.7716    0.5396 O.2     1  LIG1       -0.3377
      4 O           1.5400    1.0514    1.9432 O.2     1  LIG1       -0.1499
      5 O           3.5602    2.0001    0.7462 O.2     1  LIG1       -0.1499
      6 O          -0.2610    0.0115   -0.5814 O.2     1  LIG1       -0.2692
      7 O          -1.8963    0.7307   -3.0251 O.2     1  LIG1       -0.2923
      8 N          -2.1927    1.2366   -0.3406 N.am    1  LIG1       -0.2802
      9 N           2.2986   -0.0082   -0.2436 N.pl3   1  LIG1       -0.1831
     10 N           5.0851   -1.9321    1.0122 N.ar    1  LIG1       -0.0810
     11 C          -3.0686    0.1313   -0.4133 C.ar    1  LIG1        0.0471
     12 C           1.2320    2.5714    0.0005 C.ar    1  LIG1        0.1277
     13 C          -3.8947   -0.1194    0.7041 C.ar    1  LIG1       -0.0283
     14 C          -3.1520   -0.6963   -1.5613 C.ar    1  LIG1        0.0388
     15 C          -0.0707    2.3575   -0.4193 C.ar    1  LIG1        0.1007
     16 C          -4.8123   -2.0840   -0.4133 C.ar    1  LIG1       -0.0494
     17 C          -4.7650   -1.2230    0.6834 C.ar    1  LIG1       -0.0541
     18 C          -4.0126   -1.8118   -1.5285 C.ar    1  LIG1       -0.0466
     19 C          -0.8167    1.1070   -0.4887 C.2     1  LIG1        0.2568
     20 C           3.1848   -0.9878    0.2809 C.ar    1  LIG1        0.2399
     21 C           1.6243    3.9452   -0.1155 C.ar    1  LIG1       -0.0273
     22 C           2.8652   -2.2906    0.6022 C.ar    1  LIG1        0.0350
     23 C          -3.8930    0.7461    1.9374 C.3     1  LIG1       -0.0379
     24 C          -2.4921   -0.3343   -2.8708 C.2     1  LIG1        0.1619
     25 C           4.1014   -2.8357    1.0533 C.ar    1  LIG1        0.0854
     26 C           0.6170    4.7321   -0.6200 C.ar    1  LIG1       -0.0217
     27 C          -5.7349   -3.2683   -0.4248 C.3     1  LIG1       -0.0397
     28 C           1.5555   -2.9795    0.5605 C.3     1  LIG1       -0.0330
     29 C           4.3741   -4.2034    1.5542 C.3     1  LIG1       -0.0188
     30 C          -2.6495   -1.2649   -4.0505 C.3     1  LIG1       -0.0013
     31 H          -2.4952    2.0612    0.1595 H       1  LIG1        0.1552
     32 H           1.3418   -0.3468   -0.4085 H       1  LIG1        0.1768
     33 H          -5.4023   -1.4172    1.5446 H       1  LIG1        0.0623
     34 H          -4.1056   -2.4745   -2.3841 H       1  LIG1        0.0628
     35 H           2.5960    4.3331    0.1740 H       1  LIG1        0.0643
     36 H          -2.9044    1.1726    2.1372 H       1  LIG1        0.0278
     37 H          -4.1560    0.1602    2.8234 H       1  LIG1        0.0278
     38 H          -4.6185    1.5560    1.8234 H       1  LIG1        0.0278
     39 H           0.6411    5.7972   -0.8078 H       1  LIG1        0.0694
     40 H          -6.2592   -3.3803    0.5292 H       1  LIG1        0.0278
     41 H          -5.1669   -4.1874   -0.6034 H       1  LIG1        0.0278
     42 H          -6.4871   -3.1515   -1.2126 H       1  LIG1        0.0278
     43 H           0.7252   -2.2833    0.4131 H       1  LIG1        0.0280
     44 H           1.3718   -3.5034    1.5044 H       1  LIG1        0.0280
     45 H           1.5345   -3.7144   -0.2500 H       1  LIG1        0.0280
     46 H           5.4487   -4.4083    1.6022 H       1  LIG1        0.0294
     47 H           3.9198   -4.9525    0.8980 H       1  LIG1        0.0294
     48 H           3.9584   -4.3272    2.5590 H       1  LIG1        0.0294
     49 H          -2.0614   -0.8810   -4.8933 H       1  LIG1        0.0309
     50 H          -3.6962   -1.2966   -4.3653 H       1  LIG1        0.0309
     51 H          -2.2774   -2.2621   -3.8126 H       1  LIG1        0.0309
@<TRIPOS>BOND
     1     1     4    2
     2     1     5    2
     3     1     9    1
     4     1    12    1
     5     2    15   ar
     6     2    26   ar
     7     3    10   ar
     8     3    20   ar
     9     6    19    2
    10     7    24    2
    11     8    11    1
    12     8    19   am
    13     9    20    1
    14    10    25   ar
    15    11    13   ar
    16    11    14   ar
    17    12    15   ar
    18    12    21   ar
    19    13    17   ar
    20    13    23    1
    21    14    18   ar
    22    14    24    1
    23    15    19    1
    24    16    17   ar
    25    16    18   ar
    26    16    27    1
    27    20    22   ar
    28    21    26   ar
    29    22    25   ar
    30    22    28    1
    31    24    30    1
    32    25    29    1
    33     8    31    1
    34     9    32    1
    35    17    33    1
    36    18    34    1
    37    21    35    1
    38    23    36    1
    39    23    37    1
    40    23    38    1
    41    26    39    1
    42    27    40    1
    43    27    41    1
    44    27    42    1
    45    28    43    1
    46    28    44    1
    47    28    45    1
    48    29    46    1
    49    29    47    1
    50    29    48    1
    51    30    49    1
    52    30    50    1
    53    30    51    1
@<TRIPOS>MOLECULE
9911482
 51 53 0 0 0
SMALL
GASTEIGER

@<TRIPOS>ATOM
      1 S           2.4870    1.4257   -0.7158 S.O2    1  LIG1        0.0758
      2 S          -0.9901    3.8510   -0.3303 S.2     1  LIG1       -0.0902
      3 O           3.7922    1.5235   -3.7871 O.2     1  LIG1       -0.3377
      4 O           2.2080    0.5129    0.3730 O.2     1  LIG1       -0.1499
      5 O           3.7197    2.1829   -0.7558 O.2     1  LIG1       -0.1499
      6 O          -0.2912    0.1261   -1.2821 O.2     1  LIG1       -0.2692
      7 O          -2.7970   -1.1614    3.0220 O.2     1  LIG1       -0.2923
      8 N          -2.1429    1.1499   -0.3775 N.am    1  LIG1       -0.2802
      9 N           2.2305    0.5948   -2.1590 N.pl3   1  LIG1       -0.1831
     10 N           4.9401    1.1496   -4.4566 N.ar    1  LIG1       -0.0810
     11 C          -2.9863    0.0203   -0.3808 C.ar    1  LIG1        0.0471
     12 C           1.2530    2.6347   -0.5522 C.ar    1  LIG1        0.1277
     13 C          -3.4910   -0.4495   -1.6144 C.ar    1  LIG1       -0.0283
     14 C          -3.4068   -0.5904    0.8199 C.ar    1  LIG1        0.0388
     15 C          -0.1090    2.3873   -0.5850 C.ar    1  LIG1        0.1007
     16 C          -4.8178   -2.1367   -0.4430 C.ar    1  LIG1       -0.0494
     17 C          -4.4006   -1.5254   -1.6253 C.ar    1  LIG1       -0.0541
     18 C          -4.3050   -1.6718    0.7697 C.ar    1  LIG1       -0.0466
     19 C          -0.8204    1.1251   -0.8025 C.2     1  LIG1        0.2568
     20 C           3.4013    0.5256   -2.9519 C.ar    1  LIG1        0.2399
     21 C           1.5598    4.0130   -0.3133 C.ar    1  LIG1       -0.0273
     22 C           4.2991   -0.5176   -3.0262 C.ar    1  LIG1        0.0350
     23 C          -3.1725    0.1744   -2.9495 C.3     1  LIG1       -0.0379
     24 C          -2.9007   -0.2600    2.1886 C.2     1  LIG1        0.1619
     25 C           5.2512   -0.0635   -3.9842 C.ar    1  LIG1        0.0854
     26 C           0.4287    4.7812   -0.1762 C.ar    1  LIG1       -0.0217
     27 C          -5.7936   -3.2763   -0.4558 C.3     1  LIG1       -0.0397
     28 C           4.3434   -1.7780   -2.2526 C.3     1  LIG1       -0.0330
     29 C           6.4796   -0.7446   -4.4556 C.3     1  LIG1       -0.0188
     30 C          -2.5565    1.1529    2.5637 C.3     1  LIG1       -0.0013
     31 H          -2.3669    1.9066    0.2526 H       1  LIG1        0.1552
     32 H           1.8063   -0.2995   -1.9007 H       1  LIG1        0.1768
     33 H          -4.7975   -1.8772   -2.5778 H       1  LIG1        0.0623
     34 H          -4.6069   -2.1641    1.6951 H       1  LIG1        0.0628
     35 H           2.5649    4.4168   -0.2411 H       1  LIG1        0.0643
     36 H          -2.5170    1.0447   -2.8815 H       1  LIG1        0.0278
     37 H          -4.0990    0.5136   -3.4272 H       1  LIG1        0.0278
     38 H          -2.6879   -0.5617   -3.5994 H       1  LIG1        0.0278
     39 H           0.3722    5.8454    0.0104 H       1  LIG1        0.0694
     40 H          -6.1461   -3.4934   -1.4694 H       1  LIG1        0.0278
     41 H          -6.6690   -3.0287    0.1544 H       1  LIG1        0.0278
     42 H          -5.3231   -4.1813   -0.0590 H       1  LIG1        0.0278
     43 H           3.4896   -1.8754   -1.5753 H       1  LIG1        0.0280
     44 H           5.2540   -1.8123   -1.6434 H       1  LIG1        0.0280
     45 H           4.3466   -2.6433   -2.9222 H       1  LIG1        0.0280
     46 H           6.9582   -0.1939   -5.2724 H       1  LIG1        0.0294
     47 H           6.2459   -1.7499   -4.8191 H       1  LIG1        0.0294
     48 H           7.2015   -0.8304   -3.6373 H       1  LIG1        0.0294
     49 H          -2.6381    1.2603    3.6499 H       1  LIG1        0.0309
     50 H          -3.2654    1.8565    2.1215 H       1  LIG1        0.0309
     51 H          -1.5279    1.3800    2.2740 H       1  LIG1        0.0309
@<TRIPOS>BOND
     1     1     4    2
     2     1     5    2
     3     1     9    1
     4     1    12    1
     5     2    15   ar
     6     2    26   ar
     7     3    10   ar
     8     3    20   ar
     9     6    19    2
    10     7    24    2
    11     8    11    1
    12     8    19   am
    13     9    20    1
    14    10    25   ar
    15    11    13   ar
    16    11    14   ar
    17    12    15   ar
    18    12    21   ar
    19    13    17   ar
    20    13    23    1
    21    14    18   ar
    22    14    24    1
    23    15    19    1
    24    16    17   ar
    25    16    18   ar
    26    16    27    1
    27    20    22   ar
    28    21    26   ar
    29    22    25   ar
    30    22    28    1
    31    24    30    1
    32    25    29    1
    33     8    31    1
    34     9    32    1
    35    17    33    1
    36    18    34    1
    37    21    35    1
    38    23    36    1
    39    23    37    1
    40    23    38    1
    41    26    39    1
    42    27    40    1
    43    27    41    1
    44    27    42    1
    45    28    43    1
    46    28    44    1
    47    28    45    1
    48    29    46    1
    49    29    47    1
    50    29    48    1
    51    30    49    1
    52    30    50    1
    53    30    51    1
@<TRIPOS>MOLECULE
9911482
 51 53 0 0 0
SMALL
GASTEIGER

@<TRIPOS>ATOM
      1 S           2.4107    1.3107   -0.2521 S.O2    1  LIG1        0.0758
      2 S          -0.9821    3.8675   -0.4188 S.2     1  LIG1       -0.0902
      3 O           6.0030    0.8224   -0.1072 O.2     1  LIG1       -0.3377
      4 O           2.0999    0.4779   -1.3917 O.2     1  LIG1       -0.1499
      5 O           2.3518    0.8729    1.1228 O.2     1  LIG1       -0.1499
      6 O          -0.3354    0.1314    0.4161 O.2     1  LIG1       -0.2692
      7 O          -3.1938    1.5991   -2.8926 O.2     1  LIG1       -0.2923
      8 N          -2.1638    1.1264   -0.5517 N.am    1  LIG1       -0.2802
      9 N           3.9261    2.0092   -0.5984 N.pl3   1  LIG1       -0.1831
     10 N           6.8277    0.5620    0.9694 N.ar    1  LIG1       -0.0810
     11 C          -3.0578    0.0298   -0.4810 C.ar    1  LIG1        0.0471
     12 C           1.2314    2.5825   -0.3350 C.ar    1  LIG1        0.1277
     13 C          -3.2840   -0.6819    0.7155 C.ar    1  LIG1       -0.0283
     14 C          -3.7842   -0.3227   -1.6440 C.ar    1  LIG1        0.0388
     15 C          -0.1365    2.3746   -0.2820 C.ar    1  LIG1        0.1007
     16 C          -4.8629   -2.1482   -0.4495 C.ar    1  LIG1       -0.0494
     17 C          -4.1625   -1.7827    0.7027 C.ar    1  LIG1       -0.0541
     18 C          -4.6744   -1.4080   -1.6195 C.ar    1  LIG1       -0.0466
     19 C          -0.8601    1.1209   -0.0840 C.2     1  LIG1        0.2568
     20 C           4.9554    1.5911    0.2926 C.ar    1  LIG1        0.2399
     21 C           1.5772    3.9641   -0.4690 C.ar    1  LIG1       -0.0273
     22 C           5.1197    1.9337    1.6181 C.ar    1  LIG1        0.0350
     23 C          -2.6770   -0.3184    2.0457 C.3     1  LIG1       -0.0379
     24 C          -3.5831    0.4309   -2.9221 C.2     1  LIG1        0.1619
     25 C           6.2827    1.2106    2.0047 C.ar    1  LIG1        0.0854
     26 C           0.4632    4.7696   -0.5167 C.ar    1  LIG1       -0.0217
     27 C          -5.7964   -3.3230   -0.4417 C.3     1  LIG1       -0.0397
     28 C           4.2950    2.8173    2.4740 C.3     1  LIG1       -0.0330
     29 C           6.9000    1.1274    3.3490 C.3     1  LIG1       -0.0188
     30 C          -3.8639   -0.2613   -4.2309 C.3     1  LIG1       -0.0013
     31 H          -2.3272    1.7747   -1.3262 H       1  LIG1        0.1552
     32 H           4.1571    1.7074   -1.5483 H       1  LIG1        0.1768
     33 H          -4.3151   -2.3474    1.6226 H       1  LIG1        0.0623
     34 H          -5.2360   -1.6899   -2.5064 H       1  LIG1        0.0628
     35 H           2.5877    4.3525   -0.5212 H       1  LIG1        0.0643
     36 H          -2.3531    0.7250    2.0868 H       1  LIG1        0.0278
     37 H          -1.8318   -0.9754    2.2714 H       1  LIG1        0.0278
     38 H          -3.4226   -0.4280    2.8421 H       1  LIG1        0.0278
     39 H           0.4262    5.8474   -0.6064 H       1  LIG1        0.0694
     40 H          -5.9550   -3.7031    0.5729 H       1  LIG1        0.0278
     41 H          -5.3833   -4.1341   -1.0495 H       1  LIG1        0.0278
     42 H          -6.7735   -3.0338   -0.8422 H       1  LIG1        0.0278
     43 H           3.5921    3.4139    1.8858 H       1  LIG1        0.0280
     44 H           4.9316    3.5165    3.0262 H       1  LIG1        0.0280
     45 H           3.7252    2.2286    3.1993 H       1  LIG1        0.0280
     46 H           7.6781    0.3583    3.3893 H       1  LIG1        0.0294
     47 H           6.1439    0.8764    4.1005 H       1  LIG1        0.0294
     48 H           7.3511    2.0864    3.6214 H       1  LIG1        0.0294
     49 H          -3.3149    0.2488   -5.0286 H       1  LIG1        0.0309
     50 H          -4.9330   -0.2207   -4.4523 H       1  LIG1        0.0309
     51 H          -3.5135   -1.2968   -4.2065 H       1  LIG1        0.0309
@<TRIPOS>BOND
     1     1     4    2
     2     1     5    2
     3     1     9    1
     4     1    12    1
     5     2    15   ar
     6     2    26   ar
     7     3    10   ar
     8     3    20   ar
     9     6    19    2
    10     7    24    2
    11     8    11    1
    12     8    19   am
    13     9    20    1
    14    10    25   ar
    15    11    13   ar
    16    11    14   ar
    17    12    15   ar
    18    12    21   ar
    19    13    17   ar
    20    13    23    1
    21    14    18   ar
    22    14    24    1
    23    15    19    1
    24    16    17   ar
    25    16    18   ar
    26    16    27    1
    27    20    22   ar
    28    21    26   ar
    29    22    25   ar
    30    22    28    1
    31    24    30    1
    32    25    29    1
    33     8    31    1
    34     9    32    1
    35    17    33    1
    36    18    34    1
    37    21    35    1
    38    23    36    1
    39    23    37    1
    40    23    38    1
    41    26    39    1
    42    27    40    1
    43    27    41    1
    44    27    42    1
    45    28    43    1
    46    28    44    1
    47    28    45    1
    48    29    46    1
    49    29    47    1
    50    29    48    1
    51    30    49    1
    52    30    50    1
    53    30    51    1
@<TRIPOS>MOLECULE
9911482
 51 53 0 0 0
SMALL
GASTEIGER

@<TRIPOS>ATOM
      1 S           2.3229    1.3993    0.9359 S.O2    1  LIG1        0.0758
      2 S          -0.7716    3.6655   -0.9173 S.2     1  LIG1       -0.0902
      3 O           5.0835    1.1373    3.0946 O.2     1  LIG1       -0.3377
      4 O           2.6670    0.4777   -0.1230 O.2     1  LIG1       -0.1499
      5 O           1.6370    1.0545    2.1583 O.2     1  LIG1       -0.1499
      6 O          -0.3159    0.0111    0.4308 O.2     1  LIG1       -0.2692
      7 O          -3.1043    1.5349   -2.9052 O.2     1  LIG1       -0.2923
      8 N          -2.1031    1.0558   -0.5509 N.am    1  LIG1       -0.2802
      9 N           3.7075    2.2752    1.4255 N.pl3   1  LIG1       -0.1831
     10 N           6.1621    0.2777    3.1471 N.ar    1  LIG1       -0.0810
     11 C          -3.0317   -0.0129   -0.4788 C.ar    1  LIG1        0.0471
     12 C           1.2583    2.5393    0.1633 C.ar    1  LIG1        0.1277
     13 C          -3.2883   -0.7039    0.7243 C.ar    1  LIG1       -0.0283
     14 C          -3.7633   -0.3557   -1.6418 C.ar    1  LIG1        0.0388
     15 C          -0.0494    2.2678   -0.2126 C.ar    1  LIG1        0.1007
     16 C          -4.8901   -2.1471   -0.4369 C.ar    1  LIG1       -0.0494
     17 C          -4.1916   -1.7844    0.7171 C.ar    1  LIG1       -0.0541
     18 C          -4.6789   -1.4204   -1.6115 C.ar    1  LIG1       -0.0466
     19 C          -0.8072    1.0237   -0.0572 C.2     1  LIG1        0.2568
     20 C           4.7641    1.3928    1.7988 C.ar    1  LIG1        0.2399
     21 C           1.6631    3.8743   -0.1594 C.ar    1  LIG1       -0.0273
     22 C           5.6646    0.7618    0.9694 C.ar    1  LIG1        0.0350
     23 C          -2.6853   -0.3334    2.0550 C.3     1  LIG1       -0.0379
     24 C          -3.5466    0.3857   -2.9251 C.2     1  LIG1        0.1619
     25 C           6.5023    0.0486    1.8736 C.ar    1  LIG1        0.0854
     26 C           0.6473    4.5936   -0.7432 C.ar    1  LIG1       -0.0217
     27 C          -5.8463   -3.3035   -0.4261 C.3     1  LIG1       -0.0397
     28 C           5.7728    0.8080   -0.5061 C.3     1  LIG1       -0.0330
     29 C           7.6479   -0.8371    1.5588 C.3     1  LIG1       -0.0188
     30 C          -3.8814   -0.2927   -4.2287 C.3     1  LIG1       -0.0013
     31 H          -2.2387    1.7029   -1.3319 H       1  LIG1        0.1552
     32 H           3.4100    2.7629    2.2748 H       1  LIG1        0.1768
     33 H          -4.3648   -2.3349    1.6419 H       1  LIG1        0.0623
     34 H          -5.2435   -1.6982   -2.4977 H       1  LIG1        0.0628
     35 H           2.6459    4.2918    0.0257 H       1  LIG1        0.0643
     36 H          -2.4011    0.7219    2.0989 H       1  LIG1        0.0278
     37 H          -1.8167   -0.9616    2.2711 H       1  LIG1        0.0278
     38 H          -3.4196   -0.4762    2.8567 H       1  LIG1        0.0278
     39 H           0.6700    5.6217   -1.0800 H       1  LIG1        0.0694
     40 H          -6.0141   -3.6768    0.5895 H       1  LIG1        0.0278
     41 H          -5.4472   -4.1250   -1.0295 H       1  LIG1        0.0278
     42 H          -6.8168   -2.9978   -0.8304 H       1  LIG1        0.0278
     43 H           5.1315    1.5819   -0.9386 H       1  LIG1        0.0280
     44 H           5.4929   -0.1559   -0.9419 H       1  LIG1        0.0280
     45 H           6.8024    1.0327   -0.8048 H       1  LIG1        0.0280
     46 H           8.0061   -1.3651    2.4487 H       1  LIG1        0.0294
     47 H           8.4795   -0.2521    1.1534 H       1  LIG1        0.0294
     48 H           7.3596   -1.5884    0.8167 H       1  LIG1        0.0294
     49 H          -3.3449    0.2090   -5.0401 H       1  LIG1        0.0309
     50 H          -4.9552   -0.2256   -4.4197 H       1  LIG1        0.0309
     51 H          -3.5543   -1.3360   -4.2190 H       1  LIG1        0.0309
@<TRIPOS>BOND
     1     1     4    2
     2     1     5    2
     3     1     9    1
     4     1    12    1
     5     2    15   ar
     6     2    26   ar
     7     3    10   ar
     8     3    20   ar
     9     6    19    2
    10     7    24    2
    11     8    11    1
    12     8    19   am
    13     9    20    1
    14    10    25   ar
    15    11    13   ar
    16    11    14   ar
    17    12    15   ar
    18    12    21   ar
    19    13    17   ar
    20    13    23    1
    21    14    18   ar
    22    14    24    1
    23    15    19    1
    24    16    17   ar
    25    16    18   ar
    26    16    27    1
    27    20    22   ar
    28    21    26   ar
    29    22    25   ar
    30    22    28    1
    31    24    30    1
    32    25    29    1
    33     8    31    1
    34     9    32    1
    35    17    33    1
    36    18    34    1
    37    21    35    1
    38    23    36    1
    39    23    37    1
    40    23    38    1
    41    26    39    1
    42    27    40    1
    43    27    41    1
    44    27    42    1
    45    28    43    1
    46    28    44    1
    47    28    45    1
    48    29    46    1
    49    29    47    1
    50    29    48    1
    51    30    49    1
    52    30    50    1
    53    30    51    1
@<TRIPOS>MOLECULE
9911482
 51 53 0 0 0
SMALL
GASTEIGER

@<TRIPOS>ATOM
      1 S           2.3530    1.3358   -0.9185 S.O2    1  LIG1        0.0758
      2 S          -0.9609    3.8836   -0.1359 S.2     1  LIG1       -0.0902
      3 O           5.1779    0.7214   -1.9519 O.2     1  LIG1       -0.3377
      4 O           2.4571    1.3413   -2.3562 O.2     1  LIG1       -0.1499
      5 O           1.8774    0.2260   -0.1208 O.2     1  LIG1       -0.1499
      6 O          -0.5189    0.4194   -1.7358 O.2     1  LIG1       -0.2692
      7 O          -2.7019    1.1253    2.3302 O.2     1  LIG1       -0.2923
      8 N          -2.0970    1.0783   -0.1915 N.am    1  LIG1       -0.2802
      9 N           3.8152    1.8127   -0.2039 N.pl3   1  LIG1       -0.1831
     10 N           6.3279   -0.0378   -2.0325 N.ar    1  LIG1       -0.0810
     11 C          -3.0180    0.0072   -0.3077 C.ar    1  LIG1        0.0471
     12 C           1.2108    2.6037   -0.5903 C.ar    1  LIG1        0.1277
     13 C          -3.4566   -0.4907   -1.5528 C.ar    1  LIG1       -0.0283
     14 C          -3.5562   -0.5453    0.8825 C.ar    1  LIG1        0.0388
     15 C          -0.1608    2.4253   -0.5685 C.ar    1  LIG1        0.1007
     16 C          -4.8523   -2.1496   -0.4101 C.ar    1  LIG1       -0.0494
     17 C          -4.3415   -1.5869   -1.5820 C.ar    1  LIG1       -0.0541
     18 C          -4.4628   -1.6153    0.8197 C.ar    1  LIG1       -0.0466
     19 C          -0.9240    1.2306   -0.9110 C.2     1  LIG1        0.2568
     20 C           4.9203    1.0346   -0.6543 C.ar    1  LIG1        0.2399
     21 C           1.5959    3.9550   -0.3230 C.ar    1  LIG1       -0.0273
     22 C           5.9066    0.4963    0.1493 C.ar    1  LIG1        0.0350
     23 C          -3.0807    0.1019   -2.8861 C.3     1  LIG1       -0.0379
     24 C          -3.1401   -0.0208    2.2237 C.2     1  LIG1        0.1619
     25 C           6.7525   -0.1836   -0.7742 C.ar    1  LIG1        0.0854
     26 C           0.5069    4.7549   -0.0611 C.ar    1  LIG1       -0.0217
     27 C          -5.7976   -3.3136   -0.4647 C.3     1  LIG1       -0.0397
     28 C           6.0564    0.5387    1.6205 C.3     1  LIG1       -0.0330
     29 C           7.9573   -0.9977   -0.4891 C.3     1  LIG1       -0.0188
     30 C          -3.2694   -0.9134    3.4323 C.3     1  LIG1       -0.0013
     31 H          -2.1060    1.5629    0.7095 H       1  LIG1        0.1552
     32 H           3.7186    1.8332    0.8079 H       1  LIG1        0.1768
     33 H          -4.6534   -1.9881   -2.5465 H       1  LIG1        0.0623
     34 H          -4.8826   -2.0481    1.7246 H       1  LIG1        0.0628
     35 H           2.6145    4.3254   -0.3317 H       1  LIG1        0.0643
     36 H          -2.8219    1.1617   -2.8076 H       1  LIG1        0.0278
     37 H          -3.9315    0.0566   -3.5758 H       1  LIG1        0.0278
     38 H          -2.2520   -0.4551   -3.3328 H       1  LIG1        0.0278
     39 H           0.4987    5.8129    0.1668 H       1  LIG1        0.0694
     40 H          -6.1181   -3.5235   -1.4905 H       1  LIG1        0.0278
     41 H          -6.6954   -3.1011    0.1248 H       1  LIG1        0.0278
     42 H          -5.3108   -4.2106   -0.0693 H       1  LIG1        0.0278
     43 H           5.3888    1.2707    2.0833 H       1  LIG1        0.0280
     44 H           7.0812    0.8055    1.8972 H       1  LIG1        0.0280
     45 H           5.8296   -0.4432    2.0491 H       1  LIG1        0.0280
     46 H           8.4851   -1.2746   -1.4077 H       1  LIG1        0.0294
     47 H           7.6747   -1.9193    0.0301 H       1  LIG1        0.0294
     48 H           8.6557   -0.4440    0.1459 H       1  LIG1        0.0294
     49 H          -2.6085   -0.5426    4.2220 H       1  LIG1        0.0309
     50 H          -2.9540   -1.9337    3.1977 H       1  LIG1        0.0309
     51 H          -4.2991   -0.9012    3.7979 H       1  LIG1        0.0309
@<TRIPOS>BOND
     1     1     4    2
     2     1     5    2
     3     1     9    1
     4     1    12    1
     5     2    15   ar
     6     2    26   ar
     7     3    10   ar
     8     3    20   ar
     9     6    19    2
    10     7    24    2
    11     8    11    1
    12     8    19   am
    13     9    20    1
    14    10    25   ar
    15    11    13   ar
    16    11    14   ar
    17    12    15   ar
    18    12    21   ar
    19    13    17   ar
    20    13    23    1
    21    14    18   ar
    22    14    24    1
    23    15    19    1
    24    16    17   ar
    25    16    18   ar
    26    16    27    1
    27    20    22   ar
    28    21    26   ar
    29    22    25   ar
    30    22    28    1
    31    24    30    1
    32    25    29    1
    33     8    31    1
    34     9    32    1
    35    17    33    1
    36    18    34    1
    37    21    35    1
    38    23    36    1
    39    23    37    1
    40    23    38    1
    41    26    39    1
    42    27    40    1
    43    27    41    1
    44    27    42    1
    45    28    43    1
    46    28    44    1
    47    28    45    1
    48    29    46    1
    49    29    47    1
    50    29    48    1
    51    30    49    1
    52    30    50    1
    53    30    51    1
@<TRIPOS>MOLECULE
9911482
 51 53 0 0 0
SMALL
GASTEIGER

@<TRIPOS>ATOM
      1 S           2.0286    1.6077   -2.0280 S.O2    1  LIG1        0.0758
      2 S          -0.7672    3.6617    0.4141 S.2     1  LIG1       -0.0902
      3 O           2.9284    3.7951   -4.2639 O.2     1  LIG1       -0.3377
      4 O           1.2596    1.4474   -3.2393 O.2     1  LIG1       -0.1499
      5 O           2.3713    0.5139   -1.1448 O.2     1  LIG1       -0.1499
      6 O          -0.5476    0.2304   -1.4778 O.2     1  LIG1       -0.2692
      7 O          -2.7963    1.1143    2.4029 O.2     1  LIG1       -0.2923
      8 N          -2.1729    1.1016   -0.1263 N.am    1  LIG1       -0.2802
      9 N           3.5321    2.3304   -2.3885 N.pl3   1  LIG1       -0.1831
     10 N           3.1974    3.9039   -5.6151 N.ar    1  LIG1       -0.0810
     11 C          -3.0902    0.0272   -0.2453 C.ar    1  LIG1        0.0471
     12 C           1.0973    2.6782   -1.0365 C.ar    1  LIG1        0.1277
     13 C          -3.5131   -0.4559   -1.5027 C.ar    1  LIG1       -0.0283
     14 C          -3.6261   -0.5448    0.9322 C.ar    1  LIG1        0.0388
     15 C          -0.1634    2.3684   -0.5472 C.ar    1  LIG1        0.1007
     16 C          -4.8981   -2.1428   -0.3952 C.ar    1  LIG1       -0.0494
     17 C          -4.3887   -1.5568   -1.5562 C.ar    1  LIG1       -0.0541
     18 C          -4.5196   -1.6249    0.8468 C.ar    1  LIG1       -0.0466
     19 C          -0.9533    1.1576   -0.7821 C.2     1  LIG1        0.2568
     20 C           3.6020    2.7333   -3.7481 C.ar    1  LIG1        0.2399
     21 C           1.5539    3.9688   -0.6269 C.ar    1  LIG1       -0.0273
     22 C           4.3226    2.1130   -4.7460 C.ar    1  LIG1        0.0350
     23 C          -3.1125    0.1565   -2.8208 C.3     1  LIG1       -0.0379
     24 C          -3.2143   -0.0373    2.2793 C.2     1  LIG1        0.1619
     25 C           4.0037    2.8763   -5.9053 C.ar    1  LIG1        0.0854
     26 C           0.6312    4.6084    0.1683 C.ar    1  LIG1       -0.0217
     27 C          -5.8287   -3.3173   -0.4720 C.3     1  LIG1       -0.0397
     28 C           5.1524    0.8878   -4.6887 C.3     1  LIG1       -0.0330
     29 C           4.4242    2.6295   -7.3049 C.3     1  LIG1       -0.0188
     30 C          -3.3208   -0.9552    3.4702 C.3     1  LIG1       -0.0013
     31 H          -2.1919    1.6035    0.7645 H       1  LIG1        0.1552
     32 H           4.2332    1.6403   -2.1234 H       1  LIG1        0.1768
     33 H          -4.6898   -1.9459   -2.5288 H       1  LIG1        0.0623
     34 H          -4.9357   -2.0782    1.7429 H       1  LIG1        0.0628
     35 H           2.5056    4.4099   -0.8999 H       1  LIG1        0.0643
     36 H          -2.8140    1.2035   -2.7188 H       1  LIG1        0.0278
     37 H          -3.9636    0.1556   -3.5121 H       1  LIG1        0.0278
     38 H          -2.2993   -0.4159   -3.2768 H       1  LIG1        0.0278
     39 H           0.7091    5.5900    0.6174 H       1  LIG1        0.0694
     40 H          -6.1362   -3.5195   -1.5034 H       1  LIG1        0.0278
     41 H          -6.7347   -3.1222    0.1109 H       1  LIG1        0.0278
     42 H          -5.3349   -4.2130   -0.0824 H       1  LIG1        0.0278
     43 H           5.2516    0.5028   -3.6700 H       1  LIG1        0.0280
     44 H           6.1585    1.0868   -5.0706 H       1  LIG1        0.0280
     45 H           4.7018    0.0979   -5.2989 H       1  LIG1        0.0280
     46 H           4.1073    3.4371   -7.9725 H       1  LIG1        0.0294
     47 H           3.9833    1.6961   -7.6708 H       1  LIG1        0.0294
     48 H           5.5133    2.5435   -7.3699 H       1  LIG1        0.0294
     49 H          -2.6629   -0.5876    4.2638 H       1  LIG1        0.0309
     50 H          -2.9881   -1.9648    3.2140 H       1  LIG1        0.0309
     51 H          -4.3489   -0.9689    3.8398 H       1  LIG1        0.0309
@<TRIPOS>BOND
     1     1     4    2
     2     1     5    2
     3     1     9    1
     4     1    12    1
     5     2    15   ar
     6     2    26   ar
     7     3    10   ar
     8     3    20   ar
     9     6    19    2
    10     7    24    2
    11     8    11    1
    12     8    19   am
    13     9    20    1
    14    10    25   ar
    15    11    13   ar
    16    11    14   ar
    17    12    15   ar
    18    12    21   ar
    19    13    17   ar
    20    13    23    1
    21    14    18   ar
    22    14    24    1
    23    15    19    1
    24    16    17   ar
    25    16    18   ar
    26    16    27    1
    27    20    22   ar
    28    21    26   ar
    29    22    25   ar
    30    22    28    1
    31    24    30    1
    32    25    29    1
    33     8    31    1
    34     9    32    1
    35    17    33    1
    36    18    34    1
    37    21    35    1
    38    23    36    1
    39    23    37    1
    40    23    38    1
    41    26    39    1
    42    27    40    1
    43    27    41    1
    44    27    42    1
    45    28    43    1
    46    28    44    1
    47    28    45    1
    48    29    46    1
    49    29    47    1
    50    29    48    1
    51    30    49    1
    52    30    50    1
    53    30    51    1
@<TRIPOS>MOLECULE
9911482
 51 53 0 0 0
SMALL
GASTEIGER

@<TRIPOS>ATOM
      1 S           2.1523    1.2047    0.6685 S.O2    1  LIG1        0.0758
      2 S          -0.8220    3.8509   -0.8729 S.2     1  LIG1       -0.0902
      3 O           2.7485    0.8667   -2.8806 O.2     1  LIG1       -0.3377
      4 O           1.2638    0.1127    0.9880 O.2     1  LIG1       -0.1499
      5 O           2.9024    1.8736    1.7161 O.2     1  LIG1       -0.1499
      6 O          -0.4748    0.2302   -1.4479 O.2     1  LIG1       -0.2692
      7 O          -2.8338    1.0898    2.4383 O.2     1  LIG1       -0.2923
      8 N          -2.1427    1.1000   -0.1188 N.am    1  LIG1       -0.2802
      9 N           3.2920    0.7822   -0.5083 N.pl3   1  LIG1       -0.1831
     10 N           2.1292    0.0867   -3.8369 N.ar    1  LIG1       -0.0810
     11 C          -3.0411    0.0109   -0.2384 C.ar    1  LIG1        0.0471
     12 C           1.1394    2.4769    0.0558 C.ar    1  LIG1        0.1277
     13 C          -3.4818   -0.4634   -1.4902 C.ar    1  LIG1       -0.0283
     14 C          -3.5355   -0.5875    0.9409 C.ar    1  LIG1        0.0388
     15 C          -0.1362    2.3306   -0.4549 C.ar    1  LIG1        0.1007
     16 C          -4.8391   -2.1673   -0.3659 C.ar    1  LIG1       -0.0494
     17 C          -4.3595   -1.5646   -1.5335 C.ar    1  LIG1       -0.0541
     18 C          -4.4242   -1.6701    0.8727 C.ar    1  LIG1       -0.0466
     19 C          -0.9042    1.1322   -0.7367 C.2     1  LIG1        0.2568
     20 C           2.7430    0.2184   -1.6863 C.ar    1  LIG1        0.2399
     21 C           1.5582    3.8489    0.0709 C.ar    1  LIG1       -0.0273
     22 C           2.2256   -1.0475   -1.8541 C.ar    1  LIG1        0.0350
     23 C          -3.1049    0.1588   -2.8092 C.3     1  LIG1       -0.0379
     24 C          -3.0678   -0.1067    2.2721 C.2     1  LIG1        0.1619
     25 C           1.7888   -1.0455   -3.2086 C.ar    1  LIG1        0.0854
     26 C           0.5867    4.6956   -0.4108 C.ar    1  LIG1       -0.0217
     27 C          -5.7802   -3.3343   -0.4336 C.3     1  LIG1       -0.0397
     28 C           2.1052   -2.1529   -0.8766 C.3     1  LIG1       -0.0330
     29 C           1.0414   -2.1051   -3.9243 C.3     1  LIG1       -0.0188
     30 C          -2.8731   -1.1148    3.3733 C.3     1  LIG1       -0.0013
     31 H          -2.1798    1.6020    0.7718 H       1  LIG1        0.1552
     32 H           3.8505    1.6096   -0.7217 H       1  LIG1        0.1768
     33 H          -4.6880   -1.9401   -2.5027 H       1  LIG1        0.0623
     34 H          -4.8058   -2.1323    1.7798 H       1  LIG1        0.0628
     35 H           2.5161    4.1982    0.4408 H       1  LIG1        0.0643
     36 H          -2.7038    1.1697   -2.7022 H       1  LIG1        0.0278
     37 H          -3.9929    0.2547   -3.4449 H       1  LIG1        0.0278
     38 H          -2.3707   -0.4669   -3.3261 H       1  LIG1        0.0278
     39 H           0.6312    5.7728   -0.5039 H       1  LIG1        0.0694
     40 H          -6.0948   -3.5381   -1.4625 H       1  LIG1        0.0278
     41 H          -6.6812   -3.1287    0.1535 H       1  LIG1        0.0278
     42 H          -5.2926   -4.2332   -0.0435 H       1  LIG1        0.0278
     43 H           2.7506   -1.9970   -0.0065 H       1  LIG1        0.0280
     44 H           2.4054   -3.1014   -1.3349 H       1  LIG1        0.0280
     45 H           1.0719   -2.2538   -0.5314 H       1  LIG1        0.0280
     46 H           0.6432   -1.7439   -4.8780 H       1  LIG1        0.0294
     47 H           0.1945   -2.4491   -3.3206 H       1  LIG1        0.0294
     48 H           1.6916   -2.9619   -4.1254 H       1  LIG1        0.0294
     49 H          -2.1118   -0.7416    4.0653 H       1  LIG1        0.0309
     50 H          -2.5086   -2.0639    2.9699 H       1  LIG1        0.0309
     51 H          -3.8107   -1.2646    3.9129 H       1  LIG1        0.0309
@<TRIPOS>BOND
     1     1     4    2
     2     1     5    2
     3     1     9    1
     4     1    12    1
     5     2    15   ar
     6     2    26   ar
     7     3    10   ar
     8     3    20   ar
     9     6    19    2
    10     7    24    2
    11     8    11    1
    12     8    19   am
    13     9    20    1
    14    10    25   ar
    15    11    13   ar
    16    11    14   ar
    17    12    15   ar
    18    12    21   ar
    19    13    17   ar
    20    13    23    1
    21    14    18   ar
    22    14    24    1
    23    15    19    1
    24    16    17   ar
    25    16    18   ar
    26    16    27    1
    27    20    22   ar
    28    21    26   ar
    29    22    25   ar
    30    22    28    1
    31    24    30    1
    32    25    29    1
    33     8    31    1
    34     9    32    1
    35    17    33    1
    36    18    34    1
    37    21    35    1
    38    23    36    1
    39    23    37    1
    40    23    38    1
    41    26    39    1
    42    27    40    1
    43    27    41    1
    44    27    42    1
    45    28    43    1
    46    28    44    1
    47    28    45    1
    48    29    46    1
    49    29    47    1
    50    29    48    1
    51    30    49    1
    52    30    50    1
    53    30    51    1
@<TRIPOS>MOLECULE
9911482
 51 53 0 0 0
SMALL
GASTEIGER

@<TRIPOS>ATOM
      1 S           2.3582    1.3186    0.7863 S.O2    1  LIG1        0.0758
      2 S          -0.8296    3.7071   -0.7277 S.2     1  LIG1       -0.0902
      3 O           5.0372    1.0199    3.1175 O.2     1  LIG1       -0.3377
      4 O           2.7952    0.6178   -0.3980 O.2     1  LIG1       -0.1499
      5 O           1.6559    0.7175    1.8958 O.2     1  LIG1       -0.1499
      6 O          -0.1988   -0.1001   -0.1078 O.2     1  LIG1       -0.2692
      7 O          -2.2094    0.0804    2.4336 O.2     1  LIG1       -0.2923
      8 N          -2.1379    1.0710   -0.4650 N.am    1  LIG1       -0.2802
      9 N           3.6620    2.1824    1.4721 N.pl3   1  LIG1       -0.1831
     10 N           6.1385    0.1900    3.1639 N.ar    1  LIG1       -0.0810
     11 C          -3.0437   -0.0151   -0.4419 C.ar    1  LIG1        0.0471
     12 C           1.2506    2.5111    0.1703 C.ar    1  LIG1        0.1277
     13 C          -4.0699   -0.0579   -1.4096 C.ar    1  LIG1       -0.0283
     14 C          -2.9767   -1.0424    0.5231 C.ar    1  LIG1        0.0388
     15 C          -0.0592    2.2559   -0.2060 C.ar    1  LIG1        0.1007
     16 C          -4.8749   -2.1794   -0.4807 C.ar    1  LIG1       -0.0494
     17 C          -4.9747   -1.1392   -1.4097 C.ar    1  LIG1       -0.0541
     18 C          -3.8774   -2.1183    0.4940 C.ar    1  LIG1       -0.0466
     19 C          -0.7732    0.9795   -0.2173 C.2     1  LIG1        0.2568
     20 C           4.7407    1.3187    1.8247 C.ar    1  LIG1        0.2399
     21 C           1.6227    3.8819   -0.0166 C.ar    1  LIG1       -0.0273
     22 C           5.6829    0.7513    0.9957 C.ar    1  LIG1        0.0350
     23 C          -4.2701    0.9984   -2.4652 C.3     1  LIG1       -0.0379
     24 C          -2.1246   -0.9265    1.7332 C.2     1  LIG1        0.1619
     25 C           6.5166    0.0228    1.8923 C.ar    1  LIG1        0.0854
     26 C           0.5789    4.6391   -0.4944 C.ar    1  LIG1       -0.0217
     27 C          -5.8535   -3.3164   -0.4846 C.3     1  LIG1       -0.0397
     28 C           5.8371    0.8630   -0.4731 C.3     1  LIG1       -0.0330
     29 C           7.6917   -0.8219    1.5720 C.3     1  LIG1       -0.0188
     30 C          -1.2495   -2.0971    2.0948 C.3     1  LIG1       -0.0013
     31 H          -2.4541    1.9457   -0.8587 H       1  LIG1        0.1552
     32 H           3.2935    2.5769    2.3418 H       1  LIG1        0.1768
     33 H          -5.7687   -1.1678   -2.1559 H       1  LIG1        0.0623
     34 H          -3.8379   -2.8850    1.2651 H       1  LIG1        0.0628
     35 H           2.6037    4.2955    0.1864 H       1  LIG1        0.0643
     36 H          -3.3646    1.5755   -2.6676 H       1  LIG1        0.0278
     37 H          -5.0662    1.6840   -2.1581 H       1  LIG1        0.0278
     38 H          -4.5517    0.5344   -3.4173 H       1  LIG1        0.0278
     39 H           0.5769    5.6974   -0.7202 H       1  LIG1        0.0694
     40 H          -6.5133   -3.2754   -1.3575 H       1  LIG1        0.0278
     41 H          -6.4769   -3.2791    0.4144 H       1  LIG1        0.0278
     42 H          -5.3218   -4.2729   -0.5152 H       1  LIG1        0.0278
     43 H           5.2636    1.7015   -0.8789 H       1  LIG1        0.0280
     44 H           5.5064   -0.0575   -0.9639 H       1  LIG1        0.0280
     45 H           6.8868    1.0307   -0.7364 H       1  LIG1        0.0280
     46 H           8.0621   -1.3505    2.4567 H       1  LIG1        0.0294
     47 H           8.5069   -0.2065    1.1786 H       1  LIG1        0.0294
     48 H           7.4296   -1.5716    0.8188 H       1  LIG1        0.0294
     49 H          -0.2914   -1.7261    2.4683 H       1  LIG1        0.0309
     50 H          -1.0496   -2.7221    1.2202 H       1  LIG1        0.0309
     51 H          -1.7412   -2.6950    2.8667 H       1  LIG1        0.0309
@<TRIPOS>BOND
     1     1     4    2
     2     1     5    2
     3     1     9    1
     4     1    12    1
     5     2    15   ar
     6     2    26   ar
     7     3    10   ar
     8     3    20   ar
     9     6    19    2
    10     7    24    2
    11     8    11    1
    12     8    19   am
    13     9    20    1
    14    10    25   ar
    15    11    13   ar
    16    11    14   ar
    17    12    15   ar
    18    12    21   ar
    19    13    17   ar
    20    13    23    1
    21    14    18   ar
    22    14    24    1
    23    15    19    1
    24    16    17   ar
    25    16    18   ar
    26    16    27    1
    27    20    22   ar
    28    21    26   ar
    29    22    25   ar
    30    22    28    1
    31    24    30    1
    32    25    29    1
    33     8    31    1
    34     9    32    1
    35    17    33    1
    36    18    34    1
    37    21    35    1
    38    23    36    1
    39    23    37    1
    40    23    38    1
    41    26    39    1
    42    27    40    1
    43    27    41    1
    44    27    42    1
    45    28    43    1
    46    28    44    1
    47    28    45    1
    48    29    46    1
    49    29    47    1
    50    29    48    1
    51    30    49    1
    52    30    50    1
    53    30    51    1
@<TRIPOS>MOLECULE
9911482
 51 53 0 0 0
SMALL
GASTEIGER

@<TRIPOS>ATOM
      1 S           2.3205    1.3323    0.6134 S.O2    1  LIG1        0.0758
      2 S          -0.8473    3.8011   -0.7835 S.2     1  LIG1       -0.0902
      3 O           4.8809    0.9193    3.1154 O.2     1  LIG1       -0.3377
      4 O           2.8516    0.7571   -0.5974 O.2     1  LIG1       -0.1499
      5 O           1.5332    0.6190    1.5938 O.2     1  LIG1       -0.1499
      6 O          -0.1253    0.0363   -0.8782 O.2     1  LIG1       -0.2692
      7 O          -3.4768    1.8454    1.8140 O.2     1  LIG1       -0.2923
      8 N          -2.0840    1.0837   -0.2616 N.am    1  LIG1       -0.2802
      9 N           3.5500    2.1370    1.4777 N.pl3   1  LIG1       -0.1831
     10 N           5.9931    0.1056    3.1697 N.ar    1  LIG1       -0.0810
     11 C          -2.9754   -0.0141   -0.3388 C.ar    1  LIG1        0.0471
     12 C           1.2404    2.5700    0.0457 C.ar    1  LIG1        0.1277
     13 C          -3.0375   -0.8658   -1.4610 C.ar    1  LIG1       -0.0283
     14 C          -3.8799   -0.2175    0.7311 C.ar    1  LIG1        0.0388
     15 C          -0.0537    2.3310   -0.3780 C.ar    1  LIG1        0.1007
     16 C          -4.8242   -2.1581   -0.3894 C.ar    1  LIG1       -0.0494
     17 C          -3.9440   -1.9448   -1.4538 C.ar    1  LIG1       -0.0541
     18 C          -4.7924   -1.2835    0.6990 C.ar    1  LIG1       -0.0466
     19 C          -0.7310    1.0524   -0.5510 C.2     1  LIG1        0.2568
     20 C           4.6274    1.2700    1.8259 C.ar    1  LIG1        0.2399
     21 C           1.5945    3.9543   -0.0159 C.ar    1  LIG1       -0.0273
     22 C           5.6128    0.7544    1.0112 C.ar    1  LIG1        0.0350
     23 C          -2.2189   -0.6770   -2.7112 C.3     1  LIG1       -0.0379
     24 C          -3.8494    0.6771    1.9298 C.2     1  LIG1        0.1619
     25 C           6.4246    0.0019    1.9083 C.ar    1  LIG1        0.0854
     26 C           0.5459    4.7319   -0.4517 C.ar    1  LIG1       -0.0217
     27 C          -5.7982   -3.2992   -0.4111 C.3     1  LIG1       -0.0397
     28 C           5.8282    0.9314   -0.4436 C.3     1  LIG1       -0.0330
     29 C           7.6278   -0.8058    1.5977 C.3     1  LIG1       -0.0188
     30 C          -4.2715    0.1197    3.2645 C.3     1  LIG1       -0.0013
     31 H          -2.3560    1.8188    0.3967 H       1  LIG1        0.1552
     32 H           3.1212    2.4621    2.3472 H       1  LIG1        0.1768
     33 H          -3.9754   -2.6145   -2.3134 H       1  LIG1        0.0623
     34 H          -5.4931   -1.4430    1.5147 H       1  LIG1        0.0628
     35 H           2.5640    4.3632    0.2441 H       1  LIG1        0.0643
     36 H          -1.9577    0.3725   -2.8747 H       1  LIG1        0.0278
     37 H          -2.7932   -0.9816   -3.5940 H       1  LIG1        0.0278
     38 H          -1.3120   -1.2868   -2.6707 H       1  LIG1        0.0278
     39 H           0.5282    5.8048   -0.5925 H       1  LIG1        0.0694
     40 H          -5.7375   -3.8629   -1.3479 H       1  LIG1        0.0278
     41 H          -6.8220   -2.9232   -0.3143 H       1  LIG1        0.0278
     42 H          -5.5881   -3.9891    0.4123 H       1  LIG1        0.0278
     43 H           5.2976    1.8073   -0.8288 H       1  LIG1        0.0280
     44 H           5.4913    0.0457   -0.9910 H       1  LIG1        0.0280
     45 H           6.8917    1.0782   -0.6601 H       1  LIG1        0.0280
     46 H           8.0030   -1.3292    2.4833 H       1  LIG1        0.0294
     47 H           8.4298   -0.1647    1.2184 H       1  LIG1        0.0294
     48 H           7.3963   -1.5571    0.8360 H       1  LIG1        0.0294
     49 H          -3.8229    0.7224    4.0603 H       1  LIG1        0.0309
     50 H          -3.9091   -0.9046    3.3883 H       1  LIG1        0.0309
     51 H          -5.3592    0.1572    3.3590 H       1  LIG1        0.0309
@<TRIPOS>BOND
     1     1     4    2
     2     1     5    2
     3     1     9    1
     4     1    12    1
     5     2    15   ar
     6     2    26   ar
     7     3    10   ar
     8     3    20   ar
     9     6    19    2
    10     7    24    2
    11     8    11    1
    12     8    19   am
    13     9    20    1
    14    10    25   ar
    15    11    13   ar
    16    11    14   ar
    17    12    15   ar
    18    12    21   ar
    19    13    17   ar
    20    13    23    1
    21    14    18   ar
    22    14    24    1
    23    15    19    1
    24    16    17   ar
    25    16    18   ar
    26    16    27    1
    27    20    22   ar
    28    21    26   ar
    29    22    25   ar
    30    22    28    1
    31    24    30    1
    32    25    29    1
    33     8    31    1
    34     9    32    1
    35    17    33    1
    36    18    34    1
    37    21    35    1
    38    23    36    1
    39    23    37    1
    40    23    38    1
    41    26    39    1
    42    27    40    1
    43    27    41    1
    44    27    42    1
    45    28    43    1
    46    28    44    1
    47    28    45    1
    48    29    46    1
    49    29    47    1
    50    29    48    1
    51    30    49    1
    52    30    50    1
    53    30    51    1
@<TRIPOS>MOLECULE
9911482
 51 53 0 0 0
SMALL
GASTEIGER

@<TRIPOS>ATOM
      1 S           2.1786    1.1998    0.6690 S.O2    1  LIG1        0.0758
      2 S          -0.7685    3.8649   -0.8374 S.2     1  LIG1       -0.0902
      3 O           2.7605   -2.2196    0.1078 O.2     1  LIG1       -0.3377
      4 O           1.3086    0.5919    1.6498 O.2     1  LIG1       -0.1499
      5 O           3.4300    1.8311    1.0344 O.2     1  LIG1       -0.1499
      6 O          -0.2246    0.1347   -1.1424 O.2     1  LIG1       -0.2692
      7 O          -2.8149    1.1525    2.3235 O.2     1  LIG1       -0.2923
      8 N          -2.0995    1.1361   -0.2305 N.am    1  LIG1       -0.2802
      9 N           2.4315    0.1016   -0.5998 N.pl3   1  LIG1       -0.1831
     10 N           3.7859   -3.0426    0.5340 N.ar    1  LIG1       -0.0810
     11 C          -2.9359   -0.0024   -0.3214 C.ar    1  LIG1        0.0471
     12 C           1.2170    2.5150    0.0640 C.ar    1  LIG1        0.1277
     13 C          -3.3273   -0.5221   -1.5689 C.ar    1  LIG1       -0.0283
     14 C          -3.4357   -0.5823    0.8640 C.ar    1  LIG1        0.0388
     15 C          -0.0641    2.3571   -0.4267 C.ar    1  LIG1        0.1007
     16 C          -4.7060   -2.1982   -0.4267 C.ar    1  LIG1       -0.0494
     17 C          -4.2041   -1.6242   -1.6006 C.ar    1  LIG1       -0.0541
     18 C          -4.3095   -1.6762    0.8076 C.ar    1  LIG1       -0.0466
     19 C          -0.7840    1.1188   -0.6604 C.2     1  LIG1        0.2568
     20 C           3.2506   -0.9816   -0.1658 C.ar    1  LIG1        0.2399
     21 C           1.6250    3.8846    0.0878 C.ar    1  LIG1       -0.0273
     22 C           4.6200   -0.9854   -0.0076 C.ar    1  LIG1        0.0350
     23 C          -2.9408    0.0808   -2.8930 C.3     1  LIG1       -0.0379
     24 C          -3.0045   -0.0563    2.1882 C.2     1  LIG1        0.1619
     25 C           4.8951   -2.2971    0.4715 C.ar    1  LIG1        0.0854
     26 C           0.6400    4.7227   -0.3853 C.ar    1  LIG1       -0.0217
     27 C          -5.6576   -3.3573   -0.4816 C.3     1  LIG1       -0.0397
     28 C           5.5988    0.0939   -0.2713 C.3     1  LIG1       -0.0330
     29 C           6.2041   -2.8721    0.8621 C.3     1  LIG1       -0.0188
     30 C          -2.7990   -1.0295    3.3194 C.3     1  LIG1       -0.0013
     31 H          -2.2234    1.6874    0.6244 H       1  LIG1        0.1552
     32 H           1.5006   -0.2597   -0.8641 H       1  LIG1        0.1768
     33 H          -4.5189   -2.0210   -2.5660 H       1  LIG1        0.0623
     34 H          -4.7025   -2.1193    1.7195 H       1  LIG1        0.0628
     35 H           2.5864    4.2368    0.4457 H       1  LIG1        0.0643
     36 H          -2.3001    0.9601   -2.8036 H       1  LIG1        0.0278
     37 H          -3.8426    0.4026   -3.4263 H       1  LIG1        0.0278
     38 H          -2.4132   -0.6596   -3.5028 H       1  LIG1        0.0278
     39 H           0.6741    5.8003   -0.4773 H       1  LIG1        0.0694
     40 H          -5.9661   -3.5757   -1.5093 H       1  LIG1        0.0278
     41 H          -6.5618   -3.1308    0.0932 H       1  LIG1        0.0278
     42 H          -5.1837   -4.2536   -0.0697 H       1  LIG1        0.0278
     43 H           5.1684    0.8922   -0.8836 H       1  LIG1        0.0280
     44 H           6.4647   -0.2999   -0.8141 H       1  LIG1        0.0280
     45 H           5.9544    0.5282    0.6681 H       1  LIG1        0.0280
     46 H           6.0890   -3.8460    1.3490 H       1  LIG1        0.0294
     47 H           6.7205   -2.2076    1.5626 H       1  LIG1        0.0294
     48 H           6.8396   -3.0043   -0.0191 H       1  LIG1        0.0294
     49 H          -2.0389   -0.6308    3.9982 H       1  LIG1        0.0309
     50 H          -2.4296   -1.9887    2.9453 H       1  LIG1        0.0309
     51 H          -3.7352   -1.1705    3.8642 H       1  LIG1        0.0309
@<TRIPOS>BOND
     1     1     4    2
     2     1     5    2
     3     1     9    1
     4     1    12    1
     5     2    15   ar
     6     2    26   ar
     7     3    10   ar
     8     3    20   ar
     9     6    19    2
    10     7    24    2
    11     8    11    1
    12     8    19   am
    13     9    20    1
    14    10    25   ar
    15    11    13   ar
    16    11    14   ar
    17    12    15   ar
    18    12    21   ar
    19    13    17   ar
    20    13    23    1
    21    14    18   ar
    22    14    24    1
    23    15    19    1
    24    16    17   ar
    25    16    18   ar
    26    16    27    1
    27    20    22   ar
    28    21    26   ar
    29    22    25   ar
    30    22    28    1
    31    24    30    1
    32    25    29    1
    33     8    31    1
    34     9    32    1
    35    17    33    1
    36    18    34    1
    37    21    35    1
    38    23    36    1
    39    23    37    1
    40    23    38    1
    41    26    39    1
    42    27    40    1
    43    27    41    1
    44    27    42    1
    45    28    43    1
    46    28    44    1
    47    28    45    1
    48    29    46    1
    49    29    47    1
    50    29    48    1
    51    30    49    1
    52    30    50    1
    53    30    51    1
@<TRIPOS>MOLECULE
9911482
 51 53 0 0 0
SMALL
GASTEIGER

@<TRIPOS>ATOM
      1 S           2.1959    1.3229    0.6679 S.O2    1  LIG1        0.0758
      2 S          -0.8193    3.8775   -0.9033 S.2     1  LIG1       -0.0902
      3 O           4.5149   -0.7993    0.2599 O.2     1  LIG1       -0.3377
      4 O           1.3900    0.8425    1.7713 O.2     1  LIG1       -0.1499
      5 O           3.4785    1.9616    0.8650 O.2     1  LIG1       -0.1499
      6 O          -0.2500    0.1249   -1.0313 O.2     1  LIG1       -0.2692
      7 O          -2.8310    1.1829    2.3376 O.2     1  LIG1       -0.2923
      8 N          -2.1347    1.1784   -0.2211 N.am    1  LIG1       -0.2802
      9 N           2.3330    0.0721   -0.4620 N.pl3   1  LIG1       -0.1831
     10 N           5.0436   -1.9698    0.7681 N.ar    1  LIG1       -0.0810
     11 C          -2.9658    0.0344   -0.3067 C.ar    1  LIG1        0.0471
     12 C           1.2004    2.5836    0.0052 C.ar    1  LIG1        0.1277
     13 C          -3.3471   -0.4892   -1.5560 C.ar    1  LIG1       -0.0283
     14 C          -3.4618   -0.5488    0.8777 C.ar    1  LIG1        0.0388
     15 C          -0.0905    2.3916   -0.4490 C.ar    1  LIG1        0.1007
     16 C          -4.7155   -2.1754   -0.4192 C.ar    1  LIG1       -0.0494
     17 C          -4.2154   -1.5978   -1.5916 C.ar    1  LIG1       -0.0541
     18 C          -4.3264   -1.6506    0.8169 C.ar    1  LIG1       -0.0466
     19 C          -0.8090    1.1425   -0.6196 C.2     1  LIG1        0.2568
     20 C           3.1786   -0.9493    0.0551 C.ar    1  LIG1        0.2399
     21 C           1.5897    3.9601   -0.0290 C.ar    1  LIG1       -0.0273
     22 C           2.7931   -2.2140    0.4473 C.ar    1  LIG1        0.0350
     23 C          -2.9584    0.1174   -2.8783 C.3     1  LIG1       -0.0379
     24 C          -3.0307   -0.0238    2.2018 C.2     1  LIG1        0.1619
     25 C           4.0097   -2.8079    0.8916 C.ar    1  LIG1        0.0854
     26 C           0.5849    4.7681   -0.5107 C.ar    1  LIG1       -0.0217
     27 C          -5.6606   -3.3401   -0.4780 C.3     1  LIG1       -0.0397
     28 C           1.4424   -2.8181    0.4904 C.3     1  LIG1       -0.0330
     29 C           4.2155   -4.1567    1.4693 C.3     1  LIG1       -0.0188
     30 C          -2.8303   -0.9999    3.3323 C.3     1  LIG1       -0.0013
     31 H          -2.2686    1.7422    0.6241 H       1  LIG1        0.1552
     32 H           1.3910   -0.2590   -0.7071 H       1  LIG1        0.1768
     33 H          -4.5261   -1.9947   -2.5582 H       1  LIG1        0.0623
     34 H          -4.7195   -2.0974    1.7269 H       1  LIG1        0.0628
     35 H           2.5528    4.3368    0.2995 H       1  LIG1        0.0643
     36 H          -2.3119    0.9917   -2.7855 H       1  LIG1        0.0278
     37 H          -3.8589    0.4452   -3.4101 H       1  LIG1        0.0278
     38 H          -2.4345   -0.6232   -3.4911 H       1  LIG1        0.0278
     39 H           0.6038    5.8427   -0.6388 H       1  LIG1        0.0694
     40 H          -5.9616   -3.5618   -1.5074 H       1  LIG1        0.0278
     41 H          -6.5694   -3.1178    0.0909 H       1  LIG1        0.0278
     42 H          -5.1840   -4.2332   -0.0623 H       1  LIG1        0.0278
     43 H           0.6547   -2.0871    0.2892 H       1  LIG1        0.0280
     44 H           1.2467   -3.2379    1.4831 H       1  LIG1        0.0280
     45 H           1.3586   -3.6230   -0.2455 H       1  LIG1        0.0280
     46 H           5.2794   -4.4043    1.5475 H       1  LIG1        0.0294
     47 H           3.7378   -4.9197    0.8468 H       1  LIG1        0.0294
     48 H           3.7808   -4.2077    2.4727 H       1  LIG1        0.0294
     49 H          -2.0786   -0.5996    4.0198 H       1  LIG1        0.0309
     50 H          -2.4511   -1.9552    2.9577 H       1  LIG1        0.0309
     51 H          -3.7703   -1.1485    3.8679 H       1  LIG1        0.0309
@<TRIPOS>BOND
     1     1     4    2
     2     1     5    2
     3     1     9    1
     4     1    12    1
     5     2    15   ar
     6     2    26   ar
     7     3    10   ar
     8     3    20   ar
     9     6    19    2
    10     7    24    2
    11     8    11    1
    12     8    19   am
    13     9    20    1
    14    10    25   ar
    15    11    13   ar
    16    11    14   ar
    17    12    15   ar
    18    12    21   ar
    19    13    17   ar
    20    13    23    1
    21    14    18   ar
    22    14    24    1
    23    15    19    1
    24    16    17   ar
    25    16    18   ar
    26    16    27    1
    27    20    22   ar
    28    21    26   ar
    29    22    25   ar
    30    22    28    1
    31    24    30    1
    32    25    29    1
    33     8    31    1
    34     9    32    1
    35    17    33    1
    36    18    34    1
    37    21    35    1
    38    23    36    1
    39    23    37    1
    40    23    38    1
    41    26    39    1
    42    27    40    1
    43    27    41    1
    44    27    42    1
    45    28    43    1
    46    28    44    1
    47    28    45    1
    48    29    46    1
    49    29    47    1
    50    29    48    1
    51    30    49    1
    52    30    50    1
    53    30    51    1
@<TRIPOS>MOLECULE
9911482
 51 53 0 0 0
SMALL
GASTEIGER

@<TRIPOS>ATOM
      1 S           2.2264    1.1596    0.5000 S.O2    1  LIG1        0.0758
      2 S          -0.8825    3.8488   -0.5975 S.2     1  LIG1       -0.0902
      3 O           1.7610    0.7293   -3.0505 O.2     1  LIG1       -0.3377
      4 O           1.5010    0.5224    1.5769 O.2     1  LIG1       -0.1499
      5 O           3.5161    1.7777    0.7269 O.2     1  LIG1       -0.1499
      6 O          -0.3260    0.0600   -0.9030 O.2     1  LIG1       -0.2692
      7 O          -2.9444    1.1558    2.3687 O.2     1  LIG1       -0.2923
      8 N          -2.2258    1.1538   -0.1932 N.am    1  LIG1       -0.2802
      9 N           2.3219    0.0582   -0.7815 N.pl3   1  LIG1       -0.1831
     10 N           2.3358    1.3662   -4.1289 N.ar    1  LIG1       -0.0810
     11 C          -3.0469    0.0037   -0.2808 C.ar    1  LIG1        0.0471
     12 C           1.1820    2.4817    0.0642 C.ar    1  LIG1        0.1277
     13 C          -3.4077   -0.5302   -1.5318 C.ar    1  LIG1       -0.0283
     14 C          -3.5401   -0.5828    0.9017 C.ar    1  LIG1        0.0388
     15 C          -0.1412    2.3273   -0.3064 C.ar    1  LIG1        0.1007
     16 C          -4.7757   -2.2189   -0.3976 C.ar    1  LIG1       -0.0494
     17 C          -4.2736   -1.6398   -1.5694 C.ar    1  LIG1       -0.0541
     18 C          -4.3938   -1.6917    0.8400 C.ar    1  LIG1       -0.0466
     19 C          -0.8793    1.0903   -0.5158 C.2     1  LIG1        0.2568
     20 C           2.6550    0.6536   -2.0287 C.ar    1  LIG1        0.2399
     21 C           1.5856    3.8540    0.0981 C.ar    1  LIG1       -0.0273
     22 C           3.8650    1.1672   -2.4410 C.ar    1  LIG1        0.0350
     23 C          -3.0151    0.0826   -2.8502 C.3     1  LIG1       -0.0379
     24 C          -3.1095   -0.0553    2.2251 C.2     1  LIG1        0.1619
     25 C           3.5976    1.6185   -3.7654 C.ar    1  LIG1        0.0854
     26 C           0.5588    4.6993   -0.2524 C.ar    1  LIG1       -0.0217
     27 C          -5.7078   -3.3937   -0.4593 C.3     1  LIG1       -0.0397
     28 C           5.1593    1.2268   -1.7235 C.3     1  LIG1       -0.0330
     29 C           4.5233    2.2766   -4.7158 C.3     1  LIG1       -0.0188
     30 C          -2.8637   -1.0352    3.3421 C.3     1  LIG1       -0.0013
     31 H          -2.3865    1.7271    0.6400 H       1  LIG1        0.1552
     32 H           1.3908   -0.3828   -0.8536 H       1  LIG1        0.1768
     33 H          -4.5755   -2.0419   -2.5366 H       1  LIG1        0.0623
     34 H          -4.7817   -2.1434    1.7498 H       1  LIG1        0.0628
     35 H           2.5768    4.1991    0.3705 H       1  LIG1        0.0643
     36 H          -2.2190    0.8247   -2.7677 H       1  LIG1        0.0278
     37 H          -3.8837    0.5788   -3.2965 H       1  LIG1        0.0278
     38 H          -2.6602   -0.6940   -3.5362 H       1  LIG1        0.0278
     39 H           0.5812    5.7796   -0.3170 H       1  LIG1        0.0694
     40 H          -6.0168   -3.6076   -1.4878 H       1  LIG1        0.0278
     41 H          -6.6135   -3.1878    0.1207 H       1  LIG1        0.0278
     42 H          -5.2169   -4.2853   -0.0575 H       1  LIG1        0.0278
     43 H           5.2026    0.5035   -0.9036 H       1  LIG1        0.0280
     44 H           5.3248    2.2298   -1.3179 H       1  LIG1        0.0280
     45 H           5.9873    0.9954   -2.4016 H       1  LIG1        0.0280
     46 H           4.0103    2.5759   -5.6356 H       1  LIG1        0.0294
     47 H           5.3360    1.5958   -4.9874 H       1  LIG1        0.0294
     48 H           4.9578    3.1741   -4.2648 H       1  LIG1        0.0294
     49 H          -2.1014   -0.6266    4.0125 H       1  LIG1        0.0309
     50 H          -2.4782   -1.9816    2.9514 H       1  LIG1        0.0309
     51 H          -3.7871   -1.2040    3.9002 H       1  LIG1        0.0309
@<TRIPOS>BOND
     1     1     4    2
     2     1     5    2
     3     1     9    1
     4     1    12    1
     5     2    15   ar
     6     2    26   ar
     7     3    10   ar
     8     3    20   ar
     9     6    19    2
    10     7    24    2
    11     8    11    1
    12     8    19   am
    13     9    20    1
    14    10    25   ar
    15    11    13   ar
    16    11    14   ar
    17    12    15   ar
    18    12    21   ar
    19    13    17   ar
    20    13    23    1
    21    14    18   ar
    22    14    24    1
    23    15    19    1
    24    16    17   ar
    25    16    18   ar
    26    16    27    1
    27    20    22   ar
    28    21    26   ar
    29    22    25   ar
    30    22    28    1
    31    24    30    1
    32    25    29    1
    33     8    31    1
    34     9    32    1
    35    17    33    1
    36    18    34    1
    37    21    35    1
    38    23    36    1
    39    23    37    1
    40    23    38    1
    41    26    39    1
    42    27    40    1
    43    27    41    1
    44    27    42    1
    45    28    43    1
    46    28    44    1
    47    28    45    1
    48    29    46    1
    49    29    47    1
    50    29    48    1
    51    30    49    1
    52    30    50    1
    53    30    51    1
@<TRIPOS>MOLECULE
9911482
 51 53 0 0 0
SMALL
GASTEIGER

@<TRIPOS>ATOM
      1 S           2.1237    1.0945    0.8401 S.O2    1  LIG1        0.0758
      2 S          -0.5709    3.7754   -1.0591 S.2     1  LIG1       -0.0902
      3 O           3.5855    0.6310   -2.3611 O.2     1  LIG1       -0.3377
      4 O           1.1196    0.5805    1.7498 O.2     1  LIG1       -0.1499
      5 O           3.3439    1.6891    1.3398 O.2     1  LIG1       -0.1499
      6 O          -0.1499    0.0180   -1.1029 O.2     1  LIG1       -0.2692
      7 O          -2.3501    0.7137   -3.2012 O.2     1  LIG1       -0.2923
      8 N          -2.0323    1.1171   -0.3130 N.am    1  LIG1       -0.2802
      9 N           2.4553   -0.1024   -0.3126 N.pl3   1  LIG1       -0.1831
     10 N           4.8789    0.7906   -2.8256 N.ar    1  LIG1       -0.0810
     11 C          -2.9543    0.0472   -0.3867 C.ar    1  LIG1        0.0471
     12 C           1.2865    2.4106    0.0665 C.ar    1  LIG1        0.1277
     13 C          -3.7975   -0.1831    0.7233 C.ar    1  LIG1       -0.0283
     14 C          -3.0747   -0.7813   -1.5237 C.ar    1  LIG1        0.0388
     15 C           0.0415    2.2718   -0.5190 C.ar    1  LIG1        0.1007
     16 C          -4.8047   -2.0988   -0.4218 C.ar    1  LIG1       -0.0494
     17 C          -4.7157   -1.2523    0.6843 C.ar    1  LIG1       -0.0541
     18 C          -3.9889   -1.8507   -1.5287 C.ar    1  LIG1       -0.0466
     19 C          -0.7102    1.0443   -0.7215 C.2     1  LIG1        0.2568
     20 C           3.6147    0.1776   -1.0813 C.ar    1  LIG1        0.2399
     21 C           1.7523    3.7605    0.0380 C.ar    1  LIG1       -0.0273
     22 C           4.9202   -0.0487   -0.7015 C.ar    1  LIG1        0.0350
     23 C          -3.7800    0.6540    1.9755 C.3     1  LIG1       -0.0379
     24 C          -2.4109   -0.4545   -2.8183 C.2     1  LIG1        0.1619
     25 C           5.6733    0.3756   -1.8310 C.ar    1  LIG1        0.0854
     26 C           0.8397    4.6040   -0.5565 C.ar    1  LIG1       -0.0217
     27 C          -5.7888   -3.2322   -0.4517 C.3     1  LIG1       -0.0397
     28 C           5.4393   -0.6239    0.5605 C.3     1  LIG1       -0.0330
     29 C           7.1460    0.3709   -1.9984 C.3     1  LIG1       -0.0188
     30 C          -1.9012   -1.5872   -3.6675 C.3     1  LIG1       -0.0013
     31 H          -2.2605    1.8969    0.2884 H       1  LIG1        0.1552
     32 H           1.6128   -0.2239   -0.8937 H       1  LIG1        0.1768
     33 H          -5.3650   -1.4268    1.5424 H       1  LIG1        0.0623
     34 H          -4.1091   -2.4697   -2.4142 H       1  LIG1        0.0628
     35 H           2.6989    4.0977    0.4453 H       1  LIG1        0.0643
     36 H          -2.8230    1.1574    2.1355 H       1  LIG1        0.0278
     37 H          -3.9401    0.0237    2.8578 H       1  LIG1        0.0278
     38 H          -4.5753    1.4049    1.9313 H       1  LIG1        0.0278
     39 H           0.9255    5.6720   -0.7115 H       1  LIG1        0.0694
     40 H          -6.3119   -3.3354    0.5040 H       1  LIG1        0.0278
     41 H          -5.2709   -4.1758   -0.6516 H       1  LIG1        0.0278
     42 H          -6.5377   -3.0598   -1.2309 H       1  LIG1        0.0278
     43 H           4.6338   -0.9267    1.2364 H       1  LIG1        0.0280
     44 H           6.0680    0.1026    1.0848 H       1  LIG1        0.0280
     45 H           6.0436   -1.5128    0.3508 H       1  LIG1        0.0280
     46 H           7.4548    0.9312   -2.8869 H       1  LIG1        0.0294
     47 H           7.5124   -0.6560   -2.0987 H       1  LIG1        0.0294
     48 H           7.6338    0.8254   -1.1298 H       1  LIG1        0.0294
     49 H          -1.0007   -1.2615   -4.1963 H       1  LIG1        0.0309
     50 H          -2.6673   -1.8707   -4.3948 H       1  LIG1        0.0309
     51 H          -1.6316   -2.4517   -3.0547 H       1  LIG1        0.0309
@<TRIPOS>BOND
     1     1     4    2
     2     1     5    2
     3     1     9    1
     4     1    12    1
     5     2    15   ar
     6     2    26   ar
     7     3    10   ar
     8     3    20   ar
     9     6    19    2
    10     7    24    2
    11     8    11    1
    12     8    19   am
    13     9    20    1
    14    10    25   ar
    15    11    13   ar
    16    11    14   ar
    17    12    15   ar
    18    12    21   ar
    19    13    17   ar
    20    13    23    1
    21    14    18   ar
    22    14    24    1
    23    15    19    1
    24    16    17   ar
    25    16    18   ar
    26    16    27    1
    27    20    22   ar
    28    21    26   ar
    29    22    25   ar
    30    22    28    1
    31    24    30    1
    32    25    29    1
    33     8    31    1
    34     9    32    1
    35    17    33    1
    36    18    34    1
    37    21    35    1
    38    23    36    1
    39    23    37    1
    40    23    38    1
    41    26    39    1
    42    27    40    1
    43    27    41    1
    44    27    42    1
    45    28    43    1
    46    28    44    1
    47    28    45    1
    48    29    46    1
    49    29    47    1
    50    29    48    1
    51    30    49    1
    52    30    50    1
    53    30    51    1
@<TRIPOS>MOLECULE
9911482
 51 53 0 0 0
SMALL
GASTEIGER

@<TRIPOS>ATOM
      1 S           2.2594    1.3678    0.7315 S.O2    1  LIG1        0.0758
      2 S          -0.8169    3.8206   -0.9066 S.2     1  LIG1       -0.0902
      3 O           4.5542   -0.7622    0.4661 O.2     1  LIG1       -0.3377
      4 O           1.4990    0.9453    1.8892 O.2     1  LIG1       -0.1499
      5 O           3.5380    2.0315    0.8456 O.2     1  LIG1       -0.1499
      6 O          -0.1653    0.0428   -0.7768 O.2     1  LIG1       -0.2692
      7 O          -3.5112    1.8975    1.7623 O.2     1  LIG1       -0.2923
      8 N          -2.1308    1.1462   -0.3165 N.am    1  LIG1       -0.2802
      9 N           2.3777    0.0622   -0.3321 N.pl3   1  LIG1       -0.1831
     10 N           5.0969   -1.9363    0.9518 N.ar    1  LIG1       -0.0810
     11 C          -3.0038    0.0309   -0.3682 C.ar    1  LIG1        0.0471
     12 C           1.2240    2.5843    0.0361 C.ar    1  LIG1        0.1277
     13 C          -3.0486   -0.8341   -1.4815 C.ar    1  LIG1       -0.0283
     14 C          -3.8971   -0.1797    0.7089 C.ar    1  LIG1        0.0388
     15 C          -0.0659    2.3560   -0.4124 C.ar    1  LIG1        0.1007
     16 C          -4.8000   -2.1534   -0.3892 C.ar    1  LIG1       -0.0494
     17 C          -3.9303   -1.9321   -1.4609 C.ar    1  LIG1       -0.0541
     18 C          -4.7836   -1.2671    0.6911 C.ar    1  LIG1       -0.0466
     19 C          -0.7688    1.0886   -0.5418 C.2     1  LIG1        0.2568
     20 C           3.2324   -0.9422    0.2007 C.ar    1  LIG1        0.2399
     21 C           1.5859    3.9677   -0.0294 C.ar    1  LIG1       -0.0273
     22 C           2.8695   -2.2311    0.5313 C.ar    1  LIG1        0.0350
     23 C          -2.2348   -0.6344   -2.7334 C.3     1  LIG1       -0.0379
     24 C          -3.8771    0.7295    1.8957 C.2     1  LIG1        0.1619
     25 C           4.0848   -2.8084    0.9979 C.ar    1  LIG1        0.0854
     26 C           0.5679    4.7460   -0.5301 C.ar    1  LIG1       -0.0217
     27 C          -5.7551   -3.3113   -0.3976 C.3     1  LIG1       -0.0397
     28 C           1.5377   -2.8771    0.4900 C.3     1  LIG1       -0.0330
     29 C           4.3087   -4.1765    1.5207 C.3     1  LIG1       -0.0188
     30 C          -4.2982    0.1872    3.2371 C.3     1  LIG1       -0.0013
     31 H          -2.4178    1.8957    0.3209 H       1  LIG1        0.1552
     32 H           1.4336   -0.2807   -0.5508 H       1  LIG1        0.1768
     33 H          -3.9555   -2.6085   -2.3156 H       1  LIG1        0.0623
     34 H          -5.4786   -1.4333    1.5106 H       1  LIG1        0.0628
     35 H           2.5413    4.3698    0.2914 H       1  LIG1        0.0643
     36 H          -2.0023    0.4207   -2.9051 H       1  LIG1        0.0278
     37 H          -2.7983   -0.9649   -3.6138 H       1  LIG1        0.0278
     38 H          -1.3093   -1.2150   -2.6845 H       1  LIG1        0.0278
     39 H           0.5675    5.8175   -0.6815 H       1  LIG1        0.0694
     40 H          -5.6685   -3.8983   -1.3179 H       1  LIG1        0.0278
     41 H          -6.7860   -2.9496   -0.3276 H       1  LIG1        0.0278
     42 H          -5.5479   -3.9765    0.4467 H       1  LIG1        0.0278
     43 H           0.7291   -2.1505    0.3802 H       1  LIG1        0.0280
     44 H           1.3509   -3.4242    1.4206 H       1  LIG1        0.0280
     45 H           1.4802   -3.5849   -0.3420 H       1  LIG1        0.0280
     46 H           5.3754   -4.4152    1.5829 H       1  LIG1        0.0294
     47 H           3.8360   -4.9200    0.8710 H       1  LIG1        0.0294
     48 H           3.8790   -4.2719    2.5230 H       1  LIG1        0.0294
     49 H          -3.8390    0.7914    4.0257 H       1  LIG1        0.0309
     50 H          -3.9463   -0.8399    3.3694 H       1  LIG1        0.0309
     51 H          -5.3851    0.2363    3.3350 H       1  LIG1        0.0309
@<TRIPOS>BOND
     1     1     4    2
     2     1     5    2
     3     1     9    1
     4     1    12    1
     5     2    15   ar
     6     2    26   ar
     7     3    10   ar
     8     3    20   ar
     9     6    19    2
    10     7    24    2
    11     8    11    1
    12     8    19   am
    13     9    20    1
    14    10    25   ar
    15    11    13   ar
    16    11    14   ar
    17    12    15   ar
    18    12    21   ar
    19    13    17   ar
    20    13    23    1
    21    14    18   ar
    22    14    24    1
    23    15    19    1
    24    16    17   ar
    25    16    18   ar
    26    16    27    1
    27    20    22   ar
    28    21    26   ar
    29    22    25   ar
    30    22    28    1
    31    24    30    1
    32    25    29    1
    33     8    31    1
    34     9    32    1
    35    17    33    1
    36    18    34    1
    37    21    35    1
    38    23    36    1
    39    23    37    1
    40    23    38    1
    41    26    39    1
    42    27    40    1
    43    27    41    1
    44    27    42    1
    45    28    43    1
    46    28    44    1
    47    28    45    1
    48    29    46    1
    49    29    47    1
    50    29    48    1
    51    30    49    1
    52    30    50    1
    53    30    51    1
@<TRIPOS>MOLECULE
9911482
 51 53 0 0 0
SMALL
GASTEIGER

@<TRIPOS>ATOM
      1 S           2.0619    1.0032    0.7933 S.O2    1  LIG1        0.0758
      2 S          -0.5735    3.8752   -0.8921 S.2     1  LIG1       -0.0902
      3 O           3.6274    0.7354   -2.4333 O.2     1  LIG1       -0.3377
      4 O           1.0395    0.3991    1.6213 O.2     1  LIG1       -0.1499
      5 O           3.2781    1.5326    1.3718 O.2     1  LIG1       -0.1499
      6 O          -0.2248    0.2019   -1.3699 O.2     1  LIG1       -0.2692
      7 O          -2.7369    1.1423    2.3090 O.2     1  LIG1       -0.2923
      8 N          -2.0308    1.1317   -0.2491 N.am    1  LIG1       -0.2802
      9 N           2.3987   -0.0676   -0.4748 N.pl3   1  LIG1       -0.1831
     10 N           4.9400    0.8905   -2.8404 N.ar    1  LIG1       -0.0810
     11 C          -2.8949    0.0133   -0.3470 C.ar    1  LIG1        0.0471
     12 C           1.2531    2.3988    0.1421 C.ar    1  LIG1        0.1277
     13 C          -3.3191   -0.4859   -1.5923 C.ar    1  LIG1       -0.0283
     14 C          -3.3909   -0.5709    0.8400 C.ar    1  LIG1        0.0388
     15 C           0.0105    2.3297   -0.4529 C.ar    1  LIG1        0.1007
     16 C          -4.7008   -2.1582   -0.4456 C.ar    1  LIG1       -0.0494
     17 C          -4.2084   -1.5792   -1.6207 C.ar    1  LIG1       -0.0541
     18 C          -4.2826   -1.6507    0.7866 C.ar    1  LIG1       -0.0466
     19 C          -0.7492    1.1371   -0.7677 C.2     1  LIG1        0.2568
     20 C           3.5970    0.2327   -1.1716 C.ar    1  LIG1        0.2399
     21 C           1.7462    3.7376    0.2078 C.ar    1  LIG1       -0.0273
     22 C           4.8835   -0.0300   -0.7509 C.ar    1  LIG1        0.0350
     23 C          -2.9459    0.1218   -2.9181 C.3     1  LIG1       -0.0379
     24 C          -2.9435   -0.0631    2.1661 C.2     1  LIG1        0.1619
     25 C           5.6873    0.4214   -1.8341 C.ar    1  LIG1        0.0854
     26 C           0.8515    4.6390   -0.3290 C.ar    1  LIG1       -0.0217
     27 C          -5.6694   -3.3033   -0.4957 C.3     1  LIG1       -0.0397
     28 C           5.3490   -0.6662    0.5039 C.3     1  LIG1       -0.0330
     29 C           7.1651    0.3897   -1.9477 C.3     1  LIG1       -0.0188
     30 C          -2.7492   -1.0449    3.2911 C.3     1  LIG1       -0.0013
     31 H          -2.1120    1.6559    0.6277 H       1  LIG1        0.1552
     32 H           1.5773   -0.1142   -1.0949 H       1  LIG1        0.1768
     33 H          -4.5418   -1.9633   -2.5849 H       1  LIG1        0.0623
     34 H          -4.6724   -2.0934    1.7000 H       1  LIG1        0.0628
     35 H           2.6995    4.0272    0.6360 H       1  LIG1        0.0643
     36 H          -2.3825    1.0525   -2.8269 H       1  LIG1        0.0278
     37 H          -3.8552    0.3678   -3.4787 H       1  LIG1        0.0278
     38 H          -2.3506   -0.5872   -3.5018 H       1  LIG1        0.0278
     39 H           0.9582    5.7130   -0.4104 H       1  LIG1        0.0694
     40 H          -5.9800   -3.5228   -1.5224 H       1  LIG1        0.0278
     41 H          -6.5703   -3.0606    0.0777 H       1  LIG1        0.0278
     42 H          -5.2092   -4.2045   -0.0788 H       1  LIG1        0.0278
     43 H           4.5169   -0.9850    1.1386 H       1  LIG1        0.0280
     44 H           5.9703    0.0276    1.0790 H       1  LIG1        0.0280
     45 H           5.9474   -1.5552    0.2779 H       1  LIG1        0.0280
     46 H           7.5166    0.9451   -2.8231 H       1  LIG1        0.0294
     47 H           7.5157   -0.6437   -2.0374 H       1  LIG1        0.0294
     48 H           7.6288    0.8330   -1.0603 H       1  LIG1        0.0294
     49 H          -1.9996   -0.6486    3.9830 H       1  LIG1        0.0309
     50 H          -2.3720   -1.9990    2.9124 H       1  LIG1        0.0309
     51 H          -3.6912   -1.1923    3.8241 H       1  LIG1        0.0309
@<TRIPOS>BOND
     1     1     4    2
     2     1     5    2
     3     1     9    1
     4     1    12    1
     5     2    15   ar
     6     2    26   ar
     7     3    10   ar
     8     3    20   ar
     9     6    19    2
    10     7    24    2
    11     8    11    1
    12     8    19   am
    13     9    20    1
    14    10    25   ar
    15    11    13   ar
    16    11    14   ar
    17    12    15   ar
    18    12    21   ar
    19    13    17   ar
    20    13    23    1
    21    14    18   ar
    22    14    24    1
    23    15    19    1
    24    16    17   ar
    25    16    18   ar
    26    16    27    1
    27    20    22   ar
    28    21    26   ar
    29    22    25   ar
    30    22    28    1
    31    24    30    1
    32    25    29    1
    33     8    31    1
    34     9    32    1
    35    17    33    1
    36    18    34    1
    37    21    35    1
    38    23    36    1
    39    23    37    1
    40    23    38    1
    41    26    39    1
    42    27    40    1
    43    27    41    1
    44    27    42    1
    45    28    43    1
    46    28    44    1
    47    28    45    1
    48    29    46    1
    49    29    47    1
    50    29    48    1
    51    30    49    1
    52    30    50    1
    53    30    51    1
