@<TRIPOS>MOLECULE
9939443
 70 74 0 0 0
SMALL
GASTEIGER

@<TRIPOS>ATOM
      1 S           5.5952    6.3102    7.5456 S.O2    1  LIG1        0.0908
      2 O           4.6133    3.3837    5.5609 O.3     1  LIG1       -0.4435
      3 O           5.2319    7.3478    8.4927 O.2     1  LIG1       -0.1484
      4 O           5.6983    6.5922    6.1308 O.2     1  LIG1       -0.1484
      5 O           2.1764    3.2703    4.0016 O.3     1  LIG1       -0.4715
      6 O           4.4344    5.5035    3.6050 O.3     1  LIG1       -0.4914
      7 O           2.9085    0.6589    2.7304 O.3     1  LIG1       -0.3917
      8 N           4.5135    5.0341    7.8554 N.pl3   1  LIG1       -0.1950
      9 N           7.3922    4.3493    7.7647 N.ar    1  LIG1       -0.2351
     10 N           2.4385    5.7660    7.2251 N.ar    1  LIG1       -0.2073
     11 N           1.2917    4.9493    5.3052 N.ar    1  LIG1       -0.1899
     12 N          -1.3391    9.0423    6.8204 N.ar    1  LIG1       -0.2552
     13 N          -2.8026   10.0024    4.5446 N.ar    1  LIG1       -0.5621
     14 N          -1.9702    8.3457    3.2504 N.ar    1  LIG1       -0.1535
     15 N          -3.2177   10.0408    3.2744 N.ar    1  LIG1       -0.3597
     16 N          -2.7539    9.0774    2.4718 N.ar    1  LIG1       -0.0878
     17 C          10.8610    3.8962    9.2352 C.3     1  LIG1       -0.0201
     18 C           9.5436    4.5554    8.8804 C.ar    1  LIG1       -0.0266
     19 C          11.9352    4.2798    8.2149 C.3     1  LIG1       -0.0586
     20 C          11.3345    4.2093   10.6579 C.3     1  LIG1       -0.0586
     21 C           7.1712    5.6511    8.0807 C.ar    1  LIG1        0.1969
     22 C           9.2520    5.8882    9.1994 C.ar    1  LIG1       -0.0535
     23 C           8.5797    3.8435    8.1609 C.ar    1  LIG1        0.0332
     24 C           8.0435    6.4513    8.8011 C.ar    1  LIG1       -0.0160
     25 C           3.4598    4.9594    6.9039 C.ar    1  LIG1        0.1882
     26 C           3.5121    4.1492    5.7940 C.ar    1  LIG1        0.2307
     27 C           2.3357    4.1221    5.0730 C.ar    1  LIG1        0.2641
     28 C           1.4159    5.7822    6.3540 C.ar    1  LIG1        0.1659
     29 C           0.4250    6.8604    6.5266 C.ar    1  LIG1        0.0227
     30 C           5.1891    3.3573    4.3049 C.ar    1  LIG1        0.1702
     31 C          -0.3756    7.2994    5.4602 C.ar    1  LIG1       -0.0252
     32 C           0.3033    7.5481    7.7437 C.ar    1  LIG1       -0.0328
     33 C           1.8001    1.9675    4.4711 C.3     1  LIG1        0.1143
     34 C           5.1285    4.3603    3.3183 C.ar    1  LIG1        0.1621
     35 C          -1.2252    8.3916    5.6334 C.ar    1  LIG1        0.0708
     36 C           5.9406    2.1971    4.0725 C.ar    1  LIG1       -0.0157
     37 C          -0.5780    8.6098    7.8422 C.ar    1  LIG1        0.0289
     38 C           1.6426    1.0323    3.2719 C.3     1  LIG1        0.0783
     39 C           5.8086    4.1624    2.1092 C.ar    1  LIG1       -0.0163
     40 C           6.6106    2.0126    2.8658 C.ar    1  LIG1       -0.0581
     41 C           6.5412    2.9939    1.8836 C.ar    1  LIG1       -0.0581
     42 C          -2.0043    8.9158    4.5080 C.ar    1  LIG1        0.0207
     43 C           4.0734    6.3535    2.5259 C.3     1  LIG1        0.0790
     44 H           3.2801    1.4525    2.3027 H       1  LIG1        0.2095
     45 H           4.0900    5.2580    8.7542 H       1  LIG1        0.1754
     46 H          -3.8476   10.7620    2.9346 H       1  LIG1        0.1651
     47 H          10.7232    2.8077    9.1859 H       1  LIG1        0.0344
     48 H          12.1271    5.3588    8.2174 H       1  LIG1        0.0235
     49 H          11.6311    3.9996    7.1999 H       1  LIG1        0.0235
     50 H          12.8788    3.7689    8.4337 H       1  LIG1        0.0235
     51 H          11.6073    5.2630   10.7798 H       1  LIG1        0.0235
     52 H          12.2199    3.6132   10.9052 H       1  LIG1        0.0235
     53 H          10.5564    3.9745   11.3924 H       1  LIG1        0.0235
     54 H           9.9633    6.5026    9.7455 H       1  LIG1        0.0622
     55 H           8.7478    2.8099    7.8663 H       1  LIG1        0.0833
     56 H           7.8018    7.4823    9.0368 H       1  LIG1        0.0653
     57 H          -0.3001    6.8145    4.4895 H       1  LIG1        0.0646
     58 H           0.9053    7.2765    8.6067 H       1  LIG1        0.0640
     59 H           0.8420    2.0349    4.9998 H       1  LIG1        0.0720
     60 H           2.5684    1.5679    5.1443 H       1  LIG1        0.0720
     61 H           6.0030    1.4328    4.8434 H       1  LIG1        0.0655
     62 H          -0.6852    9.1662    8.7694 H       1  LIG1        0.0830
     63 H           1.1438    0.1104    3.5845 H       1  LIG1        0.0591
     64 H           1.0591    1.4977    2.4718 H       1  LIG1        0.0591
     65 H           5.8069    4.9157    1.3282 H       1  LIG1        0.0655
     66 H           7.1912    1.1094    2.6991 H       1  LIG1        0.0619
     67 H           7.0718    2.8602    0.9443 H       1  LIG1        0.0619
     68 H           3.3719    7.1004    2.9104 H       1  LIG1        0.0660
     69 H           3.5631    5.7987    1.7312 H       1  LIG1        0.0660
     70 H           4.9484    6.8849    2.1398 H       1  LIG1        0.0660
@<TRIPOS>BOND
     1     1    21    1
     2     1     8    1
     3     1     4    2
     4     1     3    2
     5     2    26    1
     6     2    30    1
     7     5    27    1
     8     5    33    1
     9     6    34    1
    10     6    43    1
    11     7    38    1
    12     8    25    1
    13     9    23   ar
    14     9    21   ar
    15    10    25   ar
    16    10    28   ar
    17    11    27   ar
    18    11    28   ar
    19    12    37   ar
    20    12    35   ar
    21    13    15   ar
    22    13    42   ar
    23    14    42   ar
    24    14    16   ar
    25    15    16   ar
    26    17    18    1
    27    17    20    1
    28    17    19    1
    29    18    23   ar
    30    18    22   ar
    31    21    24   ar
    32    22    24   ar
    33    25    26   ar
    34    26    27   ar
    35    28    29    1
    36    29    31   ar
    37    29    32   ar
    38    30    36   ar
    39    30    34   ar
    40    31    35   ar
    41    32    37   ar
    42    33    38    1
    43    34    39   ar
    44    35    42    1
    45    36    40   ar
    46    39    41   ar
    47    40    41   ar
    48     7    44    1
    49     8    45    1
    50    15    46    1
    51    17    47    1
    52    19    48    1
    53    19    49    1
    54    19    50    1
    55    20    51    1
    56    20    52    1
    57    20    53    1
    58    22    54    1
    59    23    55    1
    60    24    56    1
    61    31    57    1
    62    32    58    1
    63    33    59    1
    64    33    60    1
    65    36    61    1
    66    37    62    1
    67    38    63    1
    68    38    64    1
    69    39    65    1
    70    40    66    1
    71    41    67    1
    72    43    68    1
    73    43    69    1
    74    43    70    1
@<TRIPOS>MOLECULE
9939443
 70 74 0 0 0
SMALL
GASTEIGER

@<TRIPOS>ATOM
      1 S           3.8479    4.0221    8.9621 S.O2    1  LIG1        0.0908
      2 O           4.1072    3.2563    5.4779 O.3     1  LIG1       -0.4435
      3 O           2.9207    4.7734    9.7879 O.2     1  LIG1       -0.1484
      4 O           5.1017    3.5699    9.5367 O.2     1  LIG1       -0.1484
      5 O           1.6862    3.3134    4.0238 O.3     1  LIG1       -0.4715
      6 O           6.2647    1.6004    5.6137 O.3     1  LIG1       -0.4914
      7 O          -0.3526    3.9994    1.0614 O.3     1  LIG1       -0.3917
      8 N           4.2834    5.0401    7.6444 N.pl3   1  LIG1       -0.1950
      9 N           1.7102    2.8172    7.9180 N.ar    1  LIG1       -0.2351
     10 N           2.4345    6.1542    6.8731 N.ar    1  LIG1       -0.2073
     11 N           1.0745    5.3016    5.1143 N.ar    1  LIG1       -0.1899
     12 N          -1.5824    9.1980    6.9497 N.ar    1  LIG1       -0.2552
     13 N          -0.7443   11.6892    8.1367 N.ar    1  LIG1       -0.5621
     14 N           1.4281   11.1323    7.8465 N.ar    1  LIG1       -0.1535
     15 N           0.1181   12.6446    8.5001 N.ar    1  LIG1       -0.3597
     16 N           1.4153   12.3612    8.3418 N.ar    1  LIG1       -0.0878
     17 C           0.9631   -0.4404    6.1237 C.3     1  LIG1       -0.0201
     18 C           1.7004    0.5807    6.9658 C.ar    1  LIG1       -0.0266
     19 C           1.4755   -0.4115    4.6808 C.3     1  LIG1       -0.0586
     20 C           1.0442   -1.8591    6.6916 C.3     1  LIG1       -0.0586
     21 C           2.9985    2.5923    8.2911 C.ar    1  LIG1        0.1969
     22 C           3.0172    0.3896    7.4049 C.ar    1  LIG1       -0.0535
     23 C           1.0964    1.8012    7.2717 C.ar    1  LIG1        0.0332
     24 C           3.6800    1.4029    8.0929 C.ar    1  LIG1       -0.0160
     25 C           3.2845    5.1507    6.6301 C.ar    1  LIG1        0.1882
     26 C           3.1777    4.2452    5.5935 C.ar    1  LIG1        0.2307
     27 C           1.9870    4.3324    4.9042 C.ar    1  LIG1        0.2641
     28 C           1.3413    6.1830    6.0966 C.ar    1  LIG1        0.1659
     29 C           0.3412    7.2210    6.3789 C.ar    1  LIG1        0.0227
     30 C           4.8239    3.0649    4.3188 C.ar    1  LIG1        0.1702
     31 C           0.7102    8.4607    6.9255 C.ar    1  LIG1       -0.0252
     32 C          -1.0197    7.0051    6.1303 C.ar    1  LIG1       -0.0328
     33 C           0.4871    3.4535    3.2625 C.3     1  LIG1        0.1143
     34 C           5.8894    2.1540    4.4143 C.ar    1  LIG1        0.1621
     35 C          -0.2646    9.4204    7.1896 C.ar    1  LIG1        0.0708
     36 C           4.5748    3.6619    3.0813 C.ar    1  LIG1       -0.0157
     37 C          -1.9288    8.0024    6.4349 C.ar    1  LIG1        0.0289
     38 C           0.8198    3.9575    1.8634 C.3     1  LIG1        0.0783
     39 C           6.6140    1.7627    3.2877 C.ar    1  LIG1       -0.0163
     40 C           5.3117    3.2845    1.9512 C.ar    1  LIG1       -0.0581
     41 C           6.3179    2.3250    2.0504 C.ar    1  LIG1       -0.0581
     42 C           0.1113   10.7318    7.7251 C.ar    1  LIG1        0.0207
     43 C           6.9820    2.5595    6.3990 C.3     1  LIG1        0.0790
     44 H          -0.0814    4.2929    0.1741 H       1  LIG1        0.2095
     45 H           4.3099    5.9706    8.0688 H       1  LIG1        0.1754
     46 H          -0.1917   13.5371    8.8743 H       1  LIG1        0.1651
     47 H          -0.1010   -0.1689    6.1045 H       1  LIG1        0.0344
     48 H           2.5330   -0.6918    4.6193 H       1  LIG1        0.0235
     49 H           1.3747    0.5885    4.2480 H       1  LIG1        0.0235
     50 H           0.9059   -1.1044    4.0521 H       1  LIG1        0.0235
     51 H           2.0632   -2.2591    6.6563 H       1  LIG1        0.0235
     52 H           0.4064   -2.5378    6.1144 H       1  LIG1        0.0235
     53 H           0.7066   -1.8852    7.7332 H       1  LIG1        0.0235
     54 H           3.5529   -0.5296    7.1799 H       1  LIG1        0.0622
     55 H           0.0763    2.0174    6.9616 H       1  LIG1        0.0833
     56 H           4.7125    1.2790    8.4005 H       1  LIG1        0.0653
     57 H           1.7553    8.6718    7.1396 H       1  LIG1        0.0646
     58 H          -1.3728    6.0628    5.7212 H       1  LIG1        0.0640
     59 H          -0.2899    4.0641    3.7370 H       1  LIG1        0.0720
     60 H           0.0417    2.4550    3.1795 H       1  LIG1        0.0720
     61 H           3.8035    4.4106    2.9478 H       1  LIG1        0.0655
     62 H          -2.9931    7.8602    6.2690 H       1  LIG1        0.0830
     63 H           1.2597    4.9589    1.9070 H       1  LIG1        0.0591
     64 H           1.5508    3.2946    1.3872 H       1  LIG1        0.0591
     65 H           7.4119    1.0315    3.3818 H       1  LIG1        0.0655
     66 H           5.0907    3.7345    0.9860 H       1  LIG1        0.0619
     67 H           6.8780    2.0249    1.1687 H       1  LIG1        0.0619
     68 H           7.8537    2.0600    6.8316 H       1  LIG1        0.0660
     69 H           6.3442    2.9019    7.2158 H       1  LIG1        0.0660
     70 H           7.3350    3.4268    5.8269 H       1  LIG1        0.0660
@<TRIPOS>BOND
     1     1    21    1
     2     1     8    1
     3     1     4    2
     4     1     3    2
     5     2    26    1
     6     2    30    1
     7     5    27    1
     8     5    33    1
     9     6    34    1
    10     6    43    1
    11     7    38    1
    12     8    25    1
    13     9    23   ar
    14     9    21   ar
    15    10    25   ar
    16    10    28   ar
    17    11    27   ar
    18    11    28   ar
    19    12    37   ar
    20    12    35   ar
    21    13    15   ar
    22    13    42   ar
    23    14    42   ar
    24    14    16   ar
    25    15    16   ar
    26    17    18    1
    27    17    20    1
    28    17    19    1
    29    18    23   ar
    30    18    22   ar
    31    21    24   ar
    32    22    24   ar
    33    25    26   ar
    34    26    27   ar
    35    28    29    1
    36    29    31   ar
    37    29    32   ar
    38    30    36   ar
    39    30    34   ar
    40    31    35   ar
    41    32    37   ar
    42    33    38    1
    43    34    39   ar
    44    35    42    1
    45    36    40   ar
    46    39    41   ar
    47    40    41   ar
    48     7    44    1
    49     8    45    1
    50    15    46    1
    51    17    47    1
    52    19    48    1
    53    19    49    1
    54    19    50    1
    55    20    51    1
    56    20    52    1
    57    20    53    1
    58    22    54    1
    59    23    55    1
    60    24    56    1
    61    31    57    1
    62    32    58    1
    63    33    59    1
    64    33    60    1
    65    36    61    1
    66    37    62    1
    67    38    63    1
    68    38    64    1
    69    39    65    1
    70    40    66    1
    71    41    67    1
    72    43    68    1
    73    43    69    1
    74    43    70    1
@<TRIPOS>MOLECULE
9939443
 70 74 0 0 0
SMALL
GASTEIGER

@<TRIPOS>ATOM
      1 S           5.8147    6.0825    7.1884 S.O2    1  LIG1        0.0908
      2 O           4.3857    3.2637    5.7848 O.3     1  LIG1       -0.4435
      3 O           6.4141    5.2427    6.1777 O.2     1  LIG1       -0.1484
      4 O           6.5939    6.5118    8.3327 O.2     1  LIG1       -0.1484
      5 O           1.8167    3.0945    4.3240 O.3     1  LIG1       -0.4715
      6 O           5.9813    0.9004    5.3816 O.3     1  LIG1       -0.4914
      7 O           1.6003    1.7963    7.1925 O.3     1  LIG1       -0.3917
      8 N           4.4412    5.3089    7.8045 N.pl3   1  LIG1       -0.1950
      9 N           4.6536    8.4828    7.1963 N.ar    1  LIG1       -0.2351
     10 N           2.3957    5.9822    7.1296 N.ar    1  LIG1       -0.2073
     11 N           1.1274    4.9361    5.4273 N.ar    1  LIG1       -0.1899
     12 N          -1.6816    8.9399    6.7963 N.ar    1  LIG1       -0.2552
     13 N          -1.2742   11.0448    8.7274 N.ar    1  LIG1       -0.5621
     14 N           0.8176   10.2978    9.1495 N.ar    1  LIG1       -0.1535
     15 N          -0.5996   11.7822    9.6167 N.ar    1  LIG1       -0.3597
     16 N           0.6459   11.3817    9.8917 N.ar    1  LIG1       -0.0878
     17 C           3.7563   11.1289    4.5940 C.3     1  LIG1       -0.0201
     18 C           4.2309    9.8329    5.2190 C.ar    1  LIG1       -0.0266
     19 C           2.2770   11.3918    4.8800 C.3     1  LIG1       -0.0586
     20 C           4.6208   12.3119    5.0377 C.3     1  LIG1       -0.0586
     21 C           5.1719    7.5446    6.3666 C.ar    1  LIG1        0.1969
     22 C           4.7410    8.8096    4.4091 C.ar    1  LIG1       -0.0535
     23 C           4.2095    9.6130    6.5987 C.ar    1  LIG1        0.0332
     24 C           5.2320    7.6439    4.9859 C.ar    1  LIG1       -0.0160
     25 C           3.3679    5.0894    6.9026 C.ar    1  LIG1        0.1882
     26 C           3.3335    4.1130    5.9266 C.ar    1  LIG1        0.2307
     27 C           2.1216    4.0345    5.2681 C.ar    1  LIG1        0.2641
     28 C           1.3108    5.8903    6.3509 C.ar    1  LIG1        0.1659
     29 C           0.2772    6.9283    6.5059 C.ar    1  LIG1        0.0227
     30 C           4.9313    2.9984    4.5458 C.ar    1  LIG1        0.1702
     31 C           0.4516    8.0024    7.3978 C.ar    1  LIG1       -0.0252
     32 C          -0.9113    6.9020    5.7661 C.ar    1  LIG1       -0.0328
     33 C           1.8270    1.7325    4.7777 C.3     1  LIG1        0.1143
     34 C           5.7024    1.8297    4.4120 C.ar    1  LIG1        0.1621
     35 C          -0.5347    8.9784    7.5197 C.ar    1  LIG1        0.0708
     36 C           4.7572    3.8342    3.4313 C.ar    1  LIG1       -0.0157
     37 C          -1.8435    7.9096    5.9419 C.ar    1  LIG1        0.0289
     38 C           0.9291    1.4483    5.9823 C.3     1  LIG1        0.0783
     39 C           6.2157    1.4843    3.1548 C.ar    1  LIG1       -0.0163
     40 C           5.2834    3.4812    2.1864 C.ar    1  LIG1       -0.0581
     41 C           6.0062    2.3021    2.0461 C.ar    1  LIG1       -0.0581
     42 C          -0.3555   10.0987    8.4475 C.ar    1  LIG1        0.0207
     43 C           6.0434    1.3601    6.7270 C.3     1  LIG1        0.0790
     44 H           1.0393    1.4936    7.9274 H       1  LIG1        0.2095
     45 H           4.1195    5.8432    8.6131 H       1  LIG1        0.1754
     46 H          -1.0070   12.6013   10.0591 H       1  LIG1        0.1651
     47 H           3.8623   11.0470    3.5037 H       1  LIG1        0.0344
     48 H           2.0857   11.5417    5.9478 H       1  LIG1        0.0235
     49 H           1.6589   10.5520    4.5434 H       1  LIG1        0.0235
     50 H           1.9387   12.2897    4.3511 H       1  LIG1        0.0235
     51 H           4.5194   12.5132    6.1096 H       1  LIG1        0.0235
     52 H           4.3344   13.2215    4.4988 H       1  LIG1        0.0235
     53 H           5.6807   12.1224    4.8326 H       1  LIG1        0.0235
     54 H           4.7765    8.9227    3.3277 H       1  LIG1        0.0622
     55 H           3.8334   10.3682    7.2859 H       1  LIG1        0.0833
     56 H           5.6534    6.8538    4.3753 H       1  LIG1        0.0653
     57 H           1.3587    8.0741    7.9942 H       1  LIG1        0.0646
     58 H          -1.1130    6.1053    5.0543 H       1  LIG1        0.0640
     59 H           2.8465    1.3879    4.9604 H       1  LIG1        0.0720
     60 H           1.4479    1.1512    3.9293 H       1  LIG1        0.0720
     61 H           4.1981    4.7616    3.5003 H       1  LIG1        0.0655
     62 H          -2.7743    7.9158    5.3814 H       1  LIG1        0.0830
     63 H          -0.0064    2.0120    5.9288 H       1  LIG1        0.0591
     64 H           0.7103    0.3766    6.0284 H       1  LIG1        0.0591
     65 H           6.7909    0.5677    3.0455 H       1  LIG1        0.0655
     66 H           5.1212    4.1244    1.3251 H       1  LIG1        0.0619
     67 H           6.4122    2.0192    1.0784 H       1  LIG1        0.0619
     68 H           6.6308    0.6340    7.2982 H       1  LIG1        0.0660
     69 H           5.0424    1.3816    7.1691 H       1  LIG1        0.0660
     70 H           6.5464    2.3287    6.8157 H       1  LIG1        0.0660
@<TRIPOS>BOND
     1     1    21    1
     2     1     8    1
     3     1     4    2
     4     1     3    2
     5     2    26    1
     6     2    30    1
     7     5    27    1
     8     5    33    1
     9     6    34    1
    10     6    43    1
    11     7    38    1
    12     8    25    1
    13     9    23   ar
    14     9    21   ar
    15    10    25   ar
    16    10    28   ar
    17    11    27   ar
    18    11    28   ar
    19    12    37   ar
    20    12    35   ar
    21    13    15   ar
    22    13    42   ar
    23    14    42   ar
    24    14    16   ar
    25    15    16   ar
    26    17    18    1
    27    17    20    1
    28    17    19    1
    29    18    23   ar
    30    18    22   ar
    31    21    24   ar
    32    22    24   ar
    33    25    26   ar
    34    26    27   ar
    35    28    29    1
    36    29    31   ar
    37    29    32   ar
    38    30    36   ar
    39    30    34   ar
    40    31    35   ar
    41    32    37   ar
    42    33    38    1
    43    34    39   ar
    44    35    42    1
    45    36    40   ar
    46    39    41   ar
    47    40    41   ar
    48     7    44    1
    49     8    45    1
    50    15    46    1
    51    17    47    1
    52    19    48    1
    53    19    49    1
    54    19    50    1
    55    20    51    1
    56    20    52    1
    57    20    53    1
    58    22    54    1
    59    23    55    1
    60    24    56    1
    61    31    57    1
    62    32    58    1
    63    33    59    1
    64    33    60    1
    65    36    61    1
    66    37    62    1
    67    38    63    1
    68    38    64    1
    69    39    65    1
    70    40    66    1
    71    41    67    1
    72    43    68    1
    73    43    69    1
    74    43    70    1
@<TRIPOS>MOLECULE
9939443
 70 74 0 0 0
SMALL
GASTEIGER

@<TRIPOS>ATOM
      1 S           4.0557    4.0832    9.1719 S.O2    1  LIG1        0.0908
      2 O           4.1362    2.9737    5.6789 O.3     1  LIG1       -0.4435
      3 O           4.4360    4.9769   10.2499 O.2     1  LIG1       -0.1484
      4 O           4.7050    2.7959    9.0488 O.2     1  LIG1       -0.1484
      5 O           1.5773    2.7975    4.5579 O.3     1  LIG1       -0.4715
      6 O           6.6186    1.4313    5.3969 O.3     1  LIG1       -0.4914
      7 O           0.4052    0.6065    3.0251 O.3     1  LIG1       -0.3917
      8 N           4.3539    4.9901    7.7586 N.pl3   1  LIG1       -0.1950
      9 N           1.7747    2.9339    8.4051 N.ar    1  LIG1       -0.2351
     10 N           2.4732    5.9584    6.9682 N.ar    1  LIG1       -0.2073
     11 N           1.0154    4.9057    5.4242 N.ar    1  LIG1       -0.1899
     12 N          -1.3513    9.2395    6.6150 N.ar    1  LIG1       -0.2552
     13 N          -3.6061    9.4357    4.8363 N.ar    1  LIG1       -0.5621
     14 N          -3.2746    7.3134    4.1298 N.ar    1  LIG1       -0.1535
     15 N          -4.5257    8.9994    3.9688 N.ar    1  LIG1       -0.3597
     16 N          -4.3724    7.7464    3.5271 N.ar    1  LIG1       -0.0878
     17 C          -1.8778    2.8584    9.4412 C.3     1  LIG1       -0.0201
     18 C          -0.4051    3.2383    9.4471 C.ar    1  LIG1       -0.0266
     19 C          -2.7016    3.4222   10.6053 C.3     1  LIG1       -0.0586
     20 C          -2.5505    3.2546    8.1188 C.3     1  LIG1       -0.0586
     21 C           2.2843    3.8016    9.3162 C.ar    1  LIG1        0.1969
     22 C           0.1786    4.1118   10.3759 C.ar    1  LIG1       -0.0535
     23 C           0.4529    2.6735    8.5010 C.ar    1  LIG1        0.0332
     24 C           1.5439    4.3995   10.3204 C.ar    1  LIG1       -0.0160
     25 C           3.3384    4.9485    6.7739 C.ar    1  LIG1        0.1882
     26 C           3.1790    3.9287    5.8629 C.ar    1  LIG1        0.2307
     27 C           1.9222    3.9105    5.2943 C.ar    1  LIG1        0.2641
     28 C           1.3465    5.9171    6.2413 C.ar    1  LIG1        0.1659
     29 C           0.4097    7.0469    6.3774 C.ar    1  LIG1        0.0227
     30 C           4.8003    2.8828    4.4630 C.ar    1  LIG1        0.1702
     31 C          -0.7588    7.1343    5.6029 C.ar    1  LIG1       -0.0252
     32 C           0.6580    8.0959    7.2757 C.ar    1  LIG1       -0.0328
     33 C           0.1734    2.6407    4.3264 C.3     1  LIG1        0.1143
     34 C           5.9643    2.0915    4.3898 C.ar    1  LIG1        0.1621
     35 C          -1.6057    8.2334    5.7402 C.ar    1  LIG1        0.0708
     36 C           4.3403    3.4854    3.2765 C.ar    1  LIG1       -0.0157
     37 C          -0.2338    9.1505    7.3583 C.ar    1  LIG1        0.0289
     38 C          -0.1203    1.1452    4.2339 C.3     1  LIG1        0.0783
     39 C           6.5902    1.8792    3.1487 C.ar    1  LIG1       -0.0163
     40 C           4.9755    3.2646    2.0488 C.ar    1  LIG1       -0.0581
     41 C           6.0981    2.4542    1.9821 C.ar    1  LIG1       -0.0581
     42 C          -2.8166    8.3464    4.9234 C.ar    1  LIG1        0.0207
     43 C           6.4059    1.8734    6.7268 C.3     1  LIG1        0.0790
     44 H           0.5213   -0.3493    3.1642 H       1  LIG1        0.2095
     45 H           4.5205    5.9513    8.0521 H       1  LIG1        0.1754
     46 H          -5.2965    9.5850    3.6594 H       1  LIG1        0.1651
     47 H          -1.9224    1.7641    9.5294 H       1  LIG1        0.0344
     48 H          -2.7346    4.5173   10.5832 H       1  LIG1        0.0235
     49 H          -2.2898    3.1098   11.5712 H       1  LIG1        0.0235
     50 H          -3.7346    3.0593   10.5586 H       1  LIG1        0.0235
     51 H          -2.4751    4.3331    7.9409 H       1  LIG1        0.0235
     52 H          -3.6127    2.9845    8.1261 H       1  LIG1        0.0235
     53 H          -2.0958    2.7433    7.2639 H       1  LIG1        0.0235
     54 H          -0.4108    4.5739   11.1643 H       1  LIG1        0.0622
     55 H           0.0864    1.9638    7.7624 H       1  LIG1        0.0833
     56 H           2.0022    5.0604   11.0478 H       1  LIG1        0.0653
     57 H          -0.9965    6.3538    4.8836 H       1  LIG1        0.0646
     58 H           1.5425    8.1028    7.9065 H       1  LIG1        0.0640
     59 H          -0.0822    3.1481    3.3898 H       1  LIG1        0.0720
     60 H          -0.4273    3.0432    5.1504 H       1  LIG1        0.0720
     61 H           3.4573    4.1130    3.2485 H       1  LIG1        0.0655
     62 H          -0.0642    9.9776    8.0426 H       1  LIG1        0.0830
     63 H           0.3391    0.6163    5.0764 H       1  LIG1        0.0591
     64 H          -1.1992    0.9667    4.2405 H       1  LIG1        0.0591
     65 H           7.4773    1.2505    3.1001 H       1  LIG1        0.0655
     66 H           4.5743    3.7131    1.1428 H       1  LIG1        0.0619
     67 H           6.5881    2.2666    1.0312 H       1  LIG1        0.0619
     68 H           7.2261    1.4910    7.3419 H       1  LIG1        0.0660
     69 H           5.4784    1.4419    7.1085 H       1  LIG1        0.0660
     70 H           6.4260    2.9657    6.8058 H       1  LIG1        0.0660
@<TRIPOS>BOND
     1     1    21    1
     2     1     8    1
     3     1     4    2
     4     1     3    2
     5     2    26    1
     6     2    30    1
     7     5    27    1
     8     5    33    1
     9     6    34    1
    10     6    43    1
    11     7    38    1
    12     8    25    1
    13     9    23   ar
    14     9    21   ar
    15    10    25   ar
    16    10    28   ar
    17    11    27   ar
    18    11    28   ar
    19    12    37   ar
    20    12    35   ar
    21    13    15   ar
    22    13    42   ar
    23    14    42   ar
    24    14    16   ar
    25    15    16   ar
    26    17    18    1
    27    17    20    1
    28    17    19    1
    29    18    23   ar
    30    18    22   ar
    31    21    24   ar
    32    22    24   ar
    33    25    26   ar
    34    26    27   ar
    35    28    29    1
    36    29    31   ar
    37    29    32   ar
    38    30    36   ar
    39    30    34   ar
    40    31    35   ar
    41    32    37   ar
    42    33    38    1
    43    34    39   ar
    44    35    42    1
    45    36    40   ar
    46    39    41   ar
    47    40    41   ar
    48     7    44    1
    49     8    45    1
    50    15    46    1
    51    17    47    1
    52    19    48    1
    53    19    49    1
    54    19    50    1
    55    20    51    1
    56    20    52    1
    57    20    53    1
    58    22    54    1
    59    23    55    1
    60    24    56    1
    61    31    57    1
    62    32    58    1
    63    33    59    1
    64    33    60    1
    65    36    61    1
    66    37    62    1
    67    38    63    1
    68    38    64    1
    69    39    65    1
    70    40    66    1
    71    41    67    1
    72    43    68    1
    73    43    69    1
    74    43    70    1
@<TRIPOS>MOLECULE
9939443
 70 74 0 0 0
SMALL
GASTEIGER

@<TRIPOS>ATOM
      1 S           4.0306    4.0249    9.1134 S.O2    1  LIG1        0.0908
      2 O           4.1737    2.9536    5.5859 O.3     1  LIG1       -0.4435
      3 O           4.5320    4.8767   10.1804 O.2     1  LIG1       -0.1484
      4 O           4.5704    2.6950    8.9413 O.2     1  LIG1       -0.1484
      5 O           1.4471    2.8643    4.3142 O.3     1  LIG1       -0.4715
      6 O           6.6084    1.4118    5.2860 O.3     1  LIG1       -0.4914
      7 O           1.9557   -0.5655    5.6235 O.3     1  LIG1       -0.3917
      8 N           4.3149    4.9187    7.6922 N.pl3   1  LIG1       -0.1950
      9 N           1.6369    3.0724    8.4289 N.ar    1  LIG1       -0.2351
     10 N           2.4226    5.8477    6.9168 N.ar    1  LIG1       -0.2073
     11 N           1.0061    4.7999    5.3406 N.ar    1  LIG1       -0.1899
     12 N          -1.3870    9.1205    6.5985 N.ar    1  LIG1       -0.2552
     13 N          -3.6163    9.3715    4.8092 N.ar    1  LIG1       -0.5621
     14 N          -3.3246    7.2497    4.0841 N.ar    1  LIG1       -0.1535
     15 N          -4.5409    8.9617    3.9344 N.ar    1  LIG1       -0.3597
     16 N          -4.4109    7.7111    3.4807 N.ar    1  LIG1       -0.0878
     17 C          -1.9104    3.0875    9.8551 C.3     1  LIG1       -0.0201
     18 C          -0.4321    3.3783    9.6648 C.ar    1  LIG1       -0.0266
     19 C          -2.7548    4.3093    9.4841 C.3     1  LIG1       -0.0586
     20 C          -2.4277    1.8568    9.0993 C.3     1  LIG1       -0.0586
     21 C           2.2532    3.8630    9.3481 C.ar    1  LIG1        0.1969
     22 C           0.2532    4.1917   10.5827 C.ar    1  LIG1       -0.0535
     23 C           0.3128    2.8664    8.6069 C.ar    1  LIG1        0.0332
     24 C           1.6165    4.4437   10.4305 C.ar    1  LIG1       -0.0160
     25 C           3.2939    4.8513    6.7150 C.ar    1  LIG1        0.1882
     26 C           3.1548    3.8354    5.7879 C.ar    1  LIG1        0.2307
     27 C           1.9163    3.8070    5.1773 C.ar    1  LIG1        0.2641
     28 C           1.3038    5.7983    6.1862 C.ar    1  LIG1        0.1659
     29 C           0.3600    6.9206    6.3368 C.ar    1  LIG1        0.0227
     30 C           4.9157    3.0210    4.4148 C.ar    1  LIG1        0.1702
     31 C          -0.8056    7.0207    5.5610 C.ar    1  LIG1       -0.0252
     32 C           0.6099    7.9572    7.2504 C.ar    1  LIG1       -0.0328
     33 C           1.8870    1.5090    4.3908 C.3     1  LIG1        0.1143
     34 C           6.0572    2.2031    4.3130 C.ar    1  LIG1        0.1621
     35 C          -1.6451    8.1250    5.7109 C.ar    1  LIG1        0.0708
     36 C           4.5267    3.7680    3.2880 C.ar    1  LIG1       -0.0157
     37 C          -0.2746    9.0161    7.3449 C.ar    1  LIG1        0.0289
     38 C           1.6480    0.8203    5.7310 C.3     1  LIG1        0.0783
     39 C           6.7279    2.0894    3.0867 C.ar    1  LIG1       -0.0163
     40 C           5.2113    3.6510    2.0739 C.ar    1  LIG1       -0.0581
     41 C           6.3054    2.8026    1.9689 C.ar    1  LIG1       -0.0581
     42 C          -2.8499    8.2649    4.8900 C.ar    1  LIG1        0.0207
     43 C           6.4947    1.8730    6.6251 C.3     1  LIG1        0.0790
     44 H           2.0329   -0.9098    6.5306 H       1  LIG1        0.2095
     45 H           4.4864    5.8840    7.9659 H       1  LIG1        0.1754
     46 H          -5.2983    9.5660    3.6281 H       1  LIG1        0.1651
     47 H          -2.0616    2.8768   10.9227 H       1  LIG1        0.0344
     48 H          -2.6168    4.5857    8.4327 H       1  LIG1        0.0235
     49 H          -2.4882    5.1785   10.0947 H       1  LIG1        0.0235
     50 H          -3.8195    4.1077    9.6450 H       1  LIG1        0.0235
     51 H          -2.4146    2.0091    8.0132 H       1  LIG1        0.0235
     52 H          -3.4636    1.6376    9.3830 H       1  LIG1        0.0235
     53 H          -1.8282    0.9680    9.3255 H       1  LIG1        0.0235
     54 H          -0.2751    4.6217   11.4322 H       1  LIG1        0.0622
     55 H          -0.1428    2.2470    7.8406 H       1  LIG1        0.0833
     56 H           2.1543    5.0517   11.1488 H       1  LIG1        0.0653
     57 H          -1.0457    6.2495    4.8331 H       1  LIG1        0.0646
     58 H           1.4927    7.9526    7.8833 H       1  LIG1        0.0640
     59 H           2.9186    1.3929    4.0535 H       1  LIG1        0.0720
     60 H           1.3068    0.9668    3.6331 H       1  LIG1        0.0720
     61 H           3.6603    4.4213    3.2953 H       1  LIG1        0.0655
     62 H          -0.1012    9.8335    8.0395 H       1  LIG1        0.0830
     63 H           2.2772    1.2474    6.5146 H       1  LIG1        0.0591
     64 H           0.6026    0.9239    6.0349 H       1  LIG1        0.0591
     65 H           7.5883    1.4282    3.0075 H       1  LIG1        0.0655
     66 H           4.8696    4.2051    1.2028 H       1  LIG1        0.0619
     67 H           6.8272    2.6906    1.0223 H       1  LIG1        0.0619
     68 H           7.3422    1.4736    7.1912 H       1  LIG1        0.0660
     69 H           5.5825    1.4644    7.0638 H       1  LIG1        0.0660
     70 H           6.5372    2.9639    6.7038 H       1  LIG1        0.0660
@<TRIPOS>BOND
     1     1    21    1
     2     1     8    1
     3     1     4    2
     4     1     3    2
     5     2    26    1
     6     2    30    1
     7     5    27    1
     8     5    33    1
     9     6    34    1
    10     6    43    1
    11     7    38    1
    12     8    25    1
    13     9    23   ar
    14     9    21   ar
    15    10    25   ar
    16    10    28   ar
    17    11    27   ar
    18    11    28   ar
    19    12    37   ar
    20    12    35   ar
    21    13    15   ar
    22    13    42   ar
    23    14    42   ar
    24    14    16   ar
    25    15    16   ar
    26    17    18    1
    27    17    20    1
    28    17    19    1
    29    18    23   ar
    30    18    22   ar
    31    21    24   ar
    32    22    24   ar
    33    25    26   ar
    34    26    27   ar
    35    28    29    1
    36    29    31   ar
    37    29    32   ar
    38    30    36   ar
    39    30    34   ar
    40    31    35   ar
    41    32    37   ar
    42    33    38    1
    43    34    39   ar
    44    35    42    1
    45    36    40   ar
    46    39    41   ar
    47    40    41   ar
    48     7    44    1
    49     8    45    1
    50    15    46    1
    51    17    47    1
    52    19    48    1
    53    19    49    1
    54    19    50    1
    55    20    51    1
    56    20    52    1
    57    20    53    1
    58    22    54    1
    59    23    55    1
    60    24    56    1
    61    31    57    1
    62    32    58    1
    63    33    59    1
    64    33    60    1
    65    36    61    1
    66    37    62    1
    67    38    63    1
    68    38    64    1
    69    39    65    1
    70    40    66    1
    71    41    67    1
    72    43    68    1
    73    43    69    1
    74    43    70    1
@<TRIPOS>MOLECULE
9939443
 70 74 0 0 0
SMALL
GASTEIGER

@<TRIPOS>ATOM
      1 S           4.0332    4.0754    9.1565 S.O2    1  LIG1        0.0908
      2 O           4.1375    3.0039    5.6538 O.3     1  LIG1       -0.4435
      3 O           4.4133    4.9555   10.2459 O.2     1  LIG1       -0.1484
      4 O           4.6833    2.7859    9.0234 O.2     1  LIG1       -0.1484
      5 O           1.5913    2.8717    4.4708 O.3     1  LIG1       -0.4715
      6 O           6.5678    1.3930    5.3699 O.3     1  LIG1       -0.4914
      7 O          -1.4362    0.8507    4.3054 O.3     1  LIG1       -0.3917
      8 N           4.3418    4.9958    7.7560 N.pl3   1  LIG1       -0.1950
      9 N           1.7501    2.9477    8.3640 N.ar    1  LIG1       -0.2351
     10 N           2.4681    5.9761    6.9637 N.ar    1  LIG1       -0.2073
     11 N           1.0321    4.9559    5.3801 N.ar    1  LIG1       -0.1899
     12 N          -1.3519    9.2656    6.6143 N.ar    1  LIG1       -0.2552
     13 N          -3.6171    9.4597    4.8503 N.ar    1  LIG1       -0.5621
     14 N          -3.2684    7.3511    4.1127 N.ar    1  LIG1       -0.1535
     15 N          -4.5339    9.0279    3.9773 N.ar    1  LIG1       -0.3597
     16 N          -4.3689    7.7839    3.5158 N.ar    1  LIG1       -0.0878
     17 C          -1.8996    2.8483    9.4148 C.3     1  LIG1       -0.0201
     18 C          -0.4268    3.2300    9.4204 C.ar    1  LIG1       -0.0266
     19 C          -2.7235    3.4112   10.5791 C.3     1  LIG1       -0.0586
     20 C          -2.5750    3.2433    8.0928 C.3     1  LIG1       -0.0586
     21 C           2.2623    3.7951    9.2927 C.ar    1  LIG1        0.1969
     22 C           0.1602    4.0830   10.3661 C.ar    1  LIG1       -0.0535
     23 C           0.4282    2.6863    8.4594 C.ar    1  LIG1        0.0332
     24 C           1.5251    4.3733   10.3128 C.ar    1  LIG1       -0.0160
     25 C           3.3323    4.9655    6.7642 C.ar    1  LIG1        0.1882
     26 C           3.1806    3.9590    5.8368 C.ar    1  LIG1        0.2307
     27 C           1.9332    3.9569    5.2515 C.ar    1  LIG1        0.2641
     28 C           1.3505    5.9497    6.2226 C.ar    1  LIG1        0.1659
     29 C           0.4120    7.0767    6.3660 C.ar    1  LIG1        0.0227
     30 C           4.8035    2.9079    4.4391 C.ar    1  LIG1        0.1702
     31 C          -0.7595    7.1636    5.5958 C.ar    1  LIG1       -0.0252
     32 C           0.6606    8.1232    7.2673 C.ar    1  LIG1       -0.0328
     33 C           0.1836    2.6414    4.4034 C.3     1  LIG1        0.1143
     34 C           5.9421    2.0805    4.3629 C.ar    1  LIG1        0.1621
     35 C          -1.6076    8.2610    5.7379 C.ar    1  LIG1        0.0708
     36 C           4.3727    3.5430    3.2583 C.ar    1  LIG1       -0.0157
     37 C          -0.2333    9.1757    7.3554 C.ar    1  LIG1        0.0289
     38 C          -0.0448    1.1384    4.2873 C.3     1  LIG1        0.0783
     39 C           6.5649    1.8572    3.1228 C.ar    1  LIG1       -0.0163
     40 C           5.0042    3.3120    2.0318 C.ar    1  LIG1       -0.0581
     41 C           6.0967    2.4610    1.9604 C.ar    1  LIG1       -0.0581
     42 C          -2.8197    8.3752    4.9227 C.ar    1  LIG1        0.0207
     43 C           6.3971    1.8634    6.6955 C.3     1  LIG1        0.0790
     44 H          -1.5254   -0.1137    4.2071 H       1  LIG1        0.2095
     45 H           4.5050    5.9544    8.0616 H       1  LIG1        0.1754
     46 H          -5.3104    9.6105    3.6776 H       1  LIG1        0.1651
     47 H          -1.9422    1.7538    9.5026 H       1  LIG1        0.0344
     48 H          -2.7526    4.5062   10.5600 H       1  LIG1        0.0235
     49 H          -2.3147    3.0944   11.5446 H       1  LIG1        0.0235
     50 H          -3.7577    3.0517   10.5301 H       1  LIG1        0.0235
     51 H          -2.4961    4.3212    7.9120 H       1  LIG1        0.0235
     52 H          -3.6378    2.9771    8.1043 H       1  LIG1        0.0235
     53 H          -2.1257    2.7279    7.2384 H       1  LIG1        0.0235
     54 H          -0.4270    4.5275   11.1679 H       1  LIG1        0.0622
     55 H           0.0568    1.9912    7.7081 H       1  LIG1        0.0833
     56 H           1.9853    5.0160   11.0530 H       1  LIG1        0.0653
     57 H          -0.9996    6.3826    4.8773 H       1  LIG1        0.0646
     58 H           1.5464    8.1293    7.8963 H       1  LIG1        0.0640
     59 H          -0.2279    3.1568    3.5268 H       1  LIG1        0.0720
     60 H          -0.3559    2.9988    5.2889 H       1  LIG1        0.0720
     61 H           3.5182    4.2091    3.2378 H       1  LIG1        0.0655
     62 H          -0.0639   10.0005    8.0424 H       1  LIG1        0.0830
     63 H           0.3944    0.7528    3.3618 H       1  LIG1        0.0591
     64 H           0.4334    0.6188    5.1249 H       1  LIG1        0.0591
     65 H           7.4313    1.2011    3.0723 H       1  LIG1        0.0655
     66 H           4.6285    3.7881    1.1300 H       1  LIG1        0.0619
     67 H           6.5864    2.2673    1.0096 H       1  LIG1        0.0619
     68 H           7.2188    1.4715    7.3000 H       1  LIG1        0.0660
     69 H           5.4667    1.4612    7.1016 H       1  LIG1        0.0660
     70 H           6.4425    2.9549    6.7575 H       1  LIG1        0.0660
@<TRIPOS>BOND
     1     1    21    1
     2     1     8    1
     3     1     4    2
     4     1     3    2
     5     2    26    1
     6     2    30    1
     7     5    27    1
     8     5    33    1
     9     6    34    1
    10     6    43    1
    11     7    38    1
    12     8    25    1
    13     9    23   ar
    14     9    21   ar
    15    10    25   ar
    16    10    28   ar
    17    11    27   ar
    18    11    28   ar
    19    12    37   ar
    20    12    35   ar
    21    13    15   ar
    22    13    42   ar
    23    14    42   ar
    24    14    16   ar
    25    15    16   ar
    26    17    18    1
    27    17    20    1
    28    17    19    1
    29    18    23   ar
    30    18    22   ar
    31    21    24   ar
    32    22    24   ar
    33    25    26   ar
    34    26    27   ar
    35    28    29    1
    36    29    31   ar
    37    29    32   ar
    38    30    36   ar
    39    30    34   ar
    40    31    35   ar
    41    32    37   ar
    42    33    38    1
    43    34    39   ar
    44    35    42    1
    45    36    40   ar
    46    39    41   ar
    47    40    41   ar
    48     7    44    1
    49     8    45    1
    50    15    46    1
    51    17    47    1
    52    19    48    1
    53    19    49    1
    54    19    50    1
    55    20    51    1
    56    20    52    1
    57    20    53    1
    58    22    54    1
    59    23    55    1
    60    24    56    1
    61    31    57    1
    62    32    58    1
    63    33    59    1
    64    33    60    1
    65    36    61    1
    66    37    62    1
    67    38    63    1
    68    38    64    1
    69    39    65    1
    70    40    66    1
    71    41    67    1
    72    43    68    1
    73    43    69    1
    74    43    70    1
@<TRIPOS>MOLECULE
9939443
 70 74 0 0 0
SMALL
GASTEIGER

@<TRIPOS>ATOM
      1 S           5.6633    6.2746    7.3921 S.O2    1  LIG1        0.0908
      2 O           4.1936    3.3050    5.8038 O.3     1  LIG1       -0.4435
      3 O           5.2101    7.6364    7.6039 O.2     1  LIG1       -0.1484
      4 O           6.2078    5.8479    6.1188 O.2     1  LIG1       -0.1484
      5 O           1.7020    3.2502    4.4009 O.3     1  LIG1       -0.4715
      6 O           5.9120    1.1396    5.6386 O.3     1  LIG1       -0.4914
      7 O          -1.8365    3.8086    4.2462 O.3     1  LIG1       -0.3917
      8 N           4.4068    5.2323    7.8351 N.pl3   1  LIG1       -0.1950
      9 N           6.5113    5.0581    9.6072 N.ar    1  LIG1       -0.2351
     10 N           2.4257    6.1648    7.1744 N.ar    1  LIG1       -0.2073
     11 N           1.0664    5.2093    5.4835 N.ar    1  LIG1       -0.1899
     12 N          -1.4673    9.3639    6.8291 N.ar    1  LIG1       -0.2552
     13 N          -4.2312    8.9476    6.1475 N.ar    1  LIG1       -0.5621
     14 N          -3.7837    6.8498    5.4320 N.ar    1  LIG1       -0.1535
     15 N          -5.2958    8.2947    5.6702 N.ar    1  LIG1       -0.3597
     16 N          -5.0779    7.0507    5.2307 N.ar    1  LIG1       -0.0878
     17 C           9.6559    4.9754   11.7246 C.3     1  LIG1       -0.0201
     18 C           8.7103    5.3545   10.6018 C.ar    1  LIG1       -0.0266
     19 C          11.1186    4.8628   11.2841 C.3     1  LIG1       -0.0586
     20 C           9.5205    5.9545   12.8921 C.3     1  LIG1       -0.0586
     21 C           6.8956    5.9416    8.6468 C.ar    1  LIG1        0.1969
     22 C           9.0359    6.2859    9.6049 C.ar    1  LIG1       -0.0535
     23 C           7.4348    4.7860   10.5537 C.ar    1  LIG1        0.0332
     24 C           8.1198    6.5840    8.5990 C.ar    1  LIG1       -0.0160
     25 C           3.3283    5.2089    6.9180 C.ar    1  LIG1        0.1882
     26 C           3.2257    4.2533    5.9285 C.ar    1  LIG1        0.2307
     27 C           2.0019    4.2550    5.2981 C.ar    1  LIG1        0.2641
     28 C           1.3315    6.1495    6.4023 C.ar    1  LIG1        0.1659
     29 C           0.3666    7.2444    6.5610 C.ar    1  LIG1        0.0227
     30 C           4.7550    3.0164    4.5789 C.ar    1  LIG1        0.1702
     31 C          -0.9826    7.0881    6.2061 C.ar    1  LIG1       -0.0252
     32 C           0.7645    8.4933    7.0561 C.ar    1  LIG1       -0.0328
     33 C           0.3447    2.8056    4.5279 C.3     1  LIG1        0.1143
     34 C           5.5918    1.8891    4.5330 C.ar    1  LIG1        0.1621
     35 C          -1.8653    8.1552    6.3534 C.ar    1  LIG1        0.0708
     36 C           4.5668    3.7590    3.4077 C.ar    1  LIG1       -0.0157
     37 C          -0.1709    9.5057    7.1661 C.ar    1  LIG1        0.0289
     38 C          -0.5973    3.5585    3.5869 C.3     1  LIG1        0.0783
     39 C           6.1236    1.4441    3.3204 C.ar    1  LIG1       -0.0163
     40 C           5.1209    3.3258    2.1979 C.ar    1  LIG1       -0.0581
     41 C           5.8839    2.1608    2.1506 C.ar    1  LIG1       -0.0581
     42 C          -3.2774    8.0073    5.9914 C.ar    1  LIG1        0.0207
     43 C           6.6033    1.9151    6.6220 C.3     1  LIG1        0.0790
     44 H          -2.3422    4.4265    3.6889 H       1  LIG1        0.2095
     45 H           4.0698    5.5378    8.7479 H       1  LIG1        0.1754
     46 H          -6.2189    8.7181    5.6402 H       1  LIG1        0.1651
     47 H           9.3669    3.9789   12.0862 H       1  LIG1        0.0344
     48 H          11.5434    5.8356   11.0144 H       1  LIG1        0.0235
     49 H          11.2196    4.1971   10.4198 H       1  LIG1        0.0235
     50 H          11.7310    4.4533   12.0950 H       1  LIG1        0.0235
     51 H           9.7978    6.9728   12.5978 H       1  LIG1        0.0235
     52 H          10.1657    5.6556   13.7254 H       1  LIG1        0.0235
     53 H           8.4900    5.9848   13.2636 H       1  LIG1        0.0235
     54 H          10.0007    6.7868    9.6004 H       1  LIG1        0.0622
     55 H           7.1121    4.0687   11.3061 H       1  LIG1        0.0833
     56 H           8.3537    7.2943    7.8136 H       1  LIG1        0.0653
     57 H          -1.3371    6.1325    5.8249 H       1  LIG1        0.0646
     58 H           1.7970    8.6829    7.3399 H       1  LIG1        0.0640
     59 H           0.0064    2.8296    5.5729 H       1  LIG1        0.0720
     60 H           0.3443    1.7463    4.2436 H       1  LIG1        0.0720
     61 H           3.9837    4.6741    3.4000 H       1  LIG1        0.0655
     62 H           0.1085   10.4885    7.5358 H       1  LIG1        0.0830
     63 H          -0.1751    4.5085    3.2457 H       1  LIG1        0.0591
     64 H          -0.8085    2.9487    2.7023 H       1  LIG1        0.0591
     65 H           6.7363    0.5474    3.2950 H       1  LIG1        0.0655
     66 H           4.9482    3.8975    1.2893 H       1  LIG1        0.0619
     67 H           6.3024    1.8192    1.2077 H       1  LIG1        0.0619
     68 H           7.3171    1.2554    7.1246 H       1  LIG1        0.0660
     69 H           5.8997    2.2809    7.3754 H       1  LIG1        0.0660
     70 H           7.1685    2.7502    6.1903 H       1  LIG1        0.0660
@<TRIPOS>BOND
     1     1    21    1
     2     1     8    1
     3     1     4    2
     4     1     3    2
     5     2    26    1
     6     2    30    1
     7     5    27    1
     8     5    33    1
     9     6    34    1
    10     6    43    1
    11     7    38    1
    12     8    25    1
    13     9    23   ar
    14     9    21   ar
    15    10    25   ar
    16    10    28   ar
    17    11    27   ar
    18    11    28   ar
    19    12    37   ar
    20    12    35   ar
    21    13    15   ar
    22    13    42   ar
    23    14    42   ar
    24    14    16   ar
    25    15    16   ar
    26    17    18    1
    27    17    20    1
    28    17    19    1
    29    18    23   ar
    30    18    22   ar
    31    21    24   ar
    32    22    24   ar
    33    25    26   ar
    34    26    27   ar
    35    28    29    1
    36    29    31   ar
    37    29    32   ar
    38    30    36   ar
    39    30    34   ar
    40    31    35   ar
    41    32    37   ar
    42    33    38    1
    43    34    39   ar
    44    35    42    1
    45    36    40   ar
    46    39    41   ar
    47    40    41   ar
    48     7    44    1
    49     8    45    1
    50    15    46    1
    51    17    47    1
    52    19    48    1
    53    19    49    1
    54    19    50    1
    55    20    51    1
    56    20    52    1
    57    20    53    1
    58    22    54    1
    59    23    55    1
    60    24    56    1
    61    31    57    1
    62    32    58    1
    63    33    59    1
    64    33    60    1
    65    36    61    1
    66    37    62    1
    67    38    63    1
    68    38    64    1
    69    39    65    1
    70    40    66    1
    71    41    67    1
    72    43    68    1
    73    43    69    1
    74    43    70    1
@<TRIPOS>MOLECULE
9939443
 70 74 0 0 0
SMALL
GASTEIGER

@<TRIPOS>ATOM
      1 S           3.7644    3.9225    9.1395 S.O2    1  LIG1        0.0908
      2 O           4.2169    3.1143    5.6986 O.3     1  LIG1       -0.4435
      3 O           3.6263    2.5837    8.6070 O.2     1  LIG1       -0.1484
      4 O           2.6480    4.5730    9.7958 O.2     1  LIG1       -0.1484
      5 O           1.8059    3.1354    4.2368 O.3     1  LIG1       -0.4715
      6 O           6.2828    1.2071    5.4974 O.3     1  LIG1       -0.4914
      7 O          -0.5084    4.1901    1.5786 O.3     1  LIG1       -0.3917
      8 N           4.3305    4.9547    7.8926 N.pl3   1  LIG1       -0.1950
      9 N           5.3956    5.1226   10.8528 N.ar    1  LIG1       -0.2351
     10 N           2.5189    6.0453    7.0251 N.ar    1  LIG1       -0.2073
     11 N           1.1744    5.1316    5.2963 N.ar    1  LIG1       -0.1899
     12 N          -1.3304    9.3150    6.6749 N.ar    1  LIG1       -0.2552
     13 N          -3.6044    9.4900    4.9165 N.ar    1  LIG1       -0.5621
     14 N          -3.1442    7.4496    4.0577 N.ar    1  LIG1       -0.1535
     15 N          -4.4927    9.0645    4.0120 N.ar    1  LIG1       -0.3597
     16 N          -4.2584    7.8640    3.4729 N.ar    1  LIG1       -0.0878
     17 C           7.9639    4.0790   13.4473 C.3     1  LIG1       -0.0201
     18 C           7.0243    3.9825   12.2605 C.ar    1  LIG1       -0.0266
     19 C           7.2026    3.7736   14.7411 C.3     1  LIG1       -0.0586
     20 C           9.2026    3.1841   13.3394 C.3     1  LIG1       -0.0586
     21 C           5.1394    3.9151   10.2832 C.ar    1  LIG1        0.1969
     22 C           6.7568    2.7782   11.5962 C.ar    1  LIG1       -0.0535
     23 C           6.3190    5.1150   11.8402 C.ar    1  LIG1        0.0332
     24 C           5.7947    2.7347   10.5912 C.ar    1  LIG1       -0.0160
     25 C           3.3691    5.0254    6.8396 C.ar    1  LIG1        0.1882
     26 C           3.2561    4.0692    5.8516 C.ar    1  LIG1        0.2307
     27 C           2.0724    4.1369    5.1484 C.ar    1  LIG1        0.2641
     28 C           1.4383    6.0609    6.2302 C.ar    1  LIG1        0.1659
     29 C           0.4809    7.1693    6.3909 C.ar    1  LIG1        0.0227
     30 C           4.9050    2.9927    4.5043 C.ar    1  LIG1        0.1702
     31 C          -0.6772    7.2605    5.6001 C.ar    1  LIG1       -0.0252
     32 C           0.6877    8.1831    7.3371 C.ar    1  LIG1       -0.0328
     33 C           0.5689    3.2516    3.5313 C.3     1  LIG1        0.1143
     34 C           5.8956    1.9960    4.4438 C.ar    1  LIG1        0.1621
     35 C          -1.5514    8.3335    5.7635 C.ar    1  LIG1        0.0708
     36 C           4.6718    3.7644    3.3562 C.ar    1  LIG1       -0.0157
     37 C          -0.2281    9.2152    7.4407 C.ar    1  LIG1        0.0289
     38 C           0.7001    4.1803    2.3267 C.3     1  LIG1        0.0783
     39 C           6.5427    1.7083    3.2366 C.ar    1  LIG1       -0.0163
     40 C           5.3331    3.4825    2.1551 C.ar    1  LIG1       -0.0581
     41 C           6.2570    2.4450    2.0909 C.ar    1  LIG1       -0.0581
     42 C          -2.7563    8.4419    4.9367 C.ar    1  LIG1        0.0207
     43 C           6.6148    1.9441    6.6714 C.3     1  LIG1        0.0790
     44 H          -0.4028    4.8478    0.8698 H       1  LIG1        0.2095
     45 H           4.3916    5.8848    8.3151 H       1  LIG1        0.1754
     46 H          -5.2988    9.6217    3.7439 H       1  LIG1        0.1651
     47 H           8.3313    5.1124   13.5053 H       1  LIG1        0.0344
     48 H           6.8034    2.7527   14.7409 H       1  LIG1        0.0235
     49 H           6.3577    4.4587   14.8736 H       1  LIG1        0.0235
     50 H           7.8569    3.8795   15.6131 H       1  LIG1        0.0235
     51 H           8.9480    2.1201   13.3931 H       1  LIG1        0.0235
     52 H           9.8960    3.3930   14.1616 H       1  LIG1        0.0235
     53 H           9.7352    3.3595   12.3987 H       1  LIG1        0.0235
     54 H           7.2602    1.8567   11.8778 H       1  LIG1        0.0622
     55 H           6.4660    6.0775   12.3271 H       1  LIG1        0.0833
     56 H           5.5463    1.8003   10.0985 H       1  LIG1        0.0653
     57 H          -0.8934    6.4955    4.8573 H       1  LIG1        0.0646
     58 H           1.5529    8.1733    7.9944 H       1  LIG1        0.0640
     59 H          -0.2679    3.5335    4.1836 H       1  LIG1        0.0720
     60 H           0.3155    2.2475    3.1702 H       1  LIG1        0.0720
     61 H           3.9571    4.5795    3.3453 H       1  LIG1        0.0655
     62 H          -0.0925   10.0136    8.1654 H       1  LIG1        0.0830
     63 H           0.9280    5.2043    2.6381 H       1  LIG1        0.0591
     64 H           1.5165    3.8461    1.6774 H       1  LIG1        0.0591
     65 H           7.2775    0.9081    3.1970 H       1  LIG1        0.0655
     66 H           5.1112    4.0649    1.2639 H       1  LIG1        0.0619
     67 H           6.7582    2.2129    1.1551 H       1  LIG1        0.0619
     68 H           7.4839    1.4673    7.1349 H       1  LIG1        0.0660
     69 H           5.7878    1.8843    7.3808 H       1  LIG1        0.0660
     70 H           6.8772    2.9903    6.4743 H       1  LIG1        0.0660
@<TRIPOS>BOND
     1     1    21    1
     2     1     8    1
     3     1     4    2
     4     1     3    2
     5     2    26    1
     6     2    30    1
     7     5    27    1
     8     5    33    1
     9     6    34    1
    10     6    43    1
    11     7    38    1
    12     8    25    1
    13     9    23   ar
    14     9    21   ar
    15    10    25   ar
    16    10    28   ar
    17    11    27   ar
    18    11    28   ar
    19    12    37   ar
    20    12    35   ar
    21    13    15   ar
    22    13    42   ar
    23    14    42   ar
    24    14    16   ar
    25    15    16   ar
    26    17    18    1
    27    17    20    1
    28    17    19    1
    29    18    23   ar
    30    18    22   ar
    31    21    24   ar
    32    22    24   ar
    33    25    26   ar
    34    26    27   ar
    35    28    29    1
    36    29    31   ar
    37    29    32   ar
    38    30    36   ar
    39    30    34   ar
    40    31    35   ar
    41    32    37   ar
    42    33    38    1
    43    34    39   ar
    44    35    42    1
    45    36    40   ar
    46    39    41   ar
    47    40    41   ar
    48     7    44    1
    49     8    45    1
    50    15    46    1
    51    17    47    1
    52    19    48    1
    53    19    49    1
    54    19    50    1
    55    20    51    1
    56    20    52    1
    57    20    53    1
    58    22    54    1
    59    23    55    1
    60    24    56    1
    61    31    57    1
    62    32    58    1
    63    33    59    1
    64    33    60    1
    65    36    61    1
    66    37    62    1
    67    38    63    1
    68    38    64    1
    69    39    65    1
    70    40    66    1
    71    41    67    1
    72    43    68    1
    73    43    69    1
    74    43    70    1
@<TRIPOS>MOLECULE
9939443
 70 74 0 0 0
SMALL
GASTEIGER

@<TRIPOS>ATOM
      1 S           5.5683    6.2289    7.4719 S.O2    1  LIG1        0.0908
      2 O           3.9918    3.0709    5.6991 O.3     1  LIG1       -0.4435
      3 O           6.8257    5.6725    7.9441 O.2     1  LIG1       -0.1484
      4 O           5.0539    7.4344    8.0912 O.2     1  LIG1       -0.1484
      5 O           1.5208    3.2367    4.3058 O.3     1  LIG1       -0.4715
      6 O           6.1652    1.3037    5.6601 O.3     1  LIG1       -0.4914
      7 O          -2.0784    2.4598    4.1645 O.3     1  LIG1       -0.3917
      8 N           4.4157    4.9999    7.7188 N.pl3   1  LIG1       -0.1950
      9 N           4.6539    7.1107    5.1315 N.ar    1  LIG1       -0.2351
     10 N           2.4250    6.0137    7.1557 N.ar    1  LIG1       -0.2073
     11 N           0.9983    5.1635    5.4637 N.ar    1  LIG1       -0.1899
     12 N          -1.2817    9.4675    6.7853 N.ar    1  LIG1       -0.2552
     13 N          -3.5661    9.6667    5.0078 N.ar    1  LIG1       -0.5621
     14 N          -3.2349    7.5394    4.3140 N.ar    1  LIG1       -0.1535
     15 N          -4.4838    9.2251    4.1393 N.ar    1  LIG1       -0.3597
     16 N          -4.3276    7.9709    3.7020 N.ar    1  LIG1       -0.0878
     17 C           5.9500    7.5024    1.5633 C.3     1  LIG1       -0.0201
     18 C           5.8948    7.0955    3.0305 C.ar    1  LIG1       -0.0266
     19 C           7.0848    6.8467    0.7617 C.3     1  LIG1       -0.0586
     20 C           4.6290    7.2432    0.8215 C.3     1  LIG1       -0.0586
     21 C           5.7167    6.4976    5.7105 C.ar    1  LIG1        0.1969
     22 C           6.9605    6.4624    3.6878 C.ar    1  LIG1       -0.0535
     23 C           4.7814    7.4071    3.8191 C.ar    1  LIG1        0.0332
     24 C           6.8810    6.1588    5.0461 C.ar    1  LIG1       -0.0160
     25 C           3.2883    5.0376    6.8480 C.ar    1  LIG1        0.1882
     26 C           3.1052    4.0905    5.8612 C.ar    1  LIG1        0.2307
     27 C           1.8717    4.1624    5.2590 C.ar    1  LIG1        0.2641
     28 C           1.3266    6.0790    6.3916 C.ar    1  LIG1        0.1659
     29 C           0.4284    7.2330    6.5510 C.ar    1  LIG1        0.0227
     30 C           4.7262    2.9541    4.5372 C.ar    1  LIG1        0.1702
     31 C          -0.7465    7.3456    5.7887 C.ar    1  LIG1       -0.0252
     32 C           0.7155    8.2800    7.4356 C.ar    1  LIG1       -0.0328
     33 C           0.2975    2.5629    4.6253 C.3     1  LIG1        0.1143
     34 C           5.7890    2.0342    4.5600 C.ar    1  LIG1        0.1621
     35 C          -1.5679    8.4611    5.9244 C.ar    1  LIG1        0.0708
     36 C           4.4544    3.6298    3.3415 C.ar    1  LIG1       -0.0157
     37 C          -0.1540    9.3555    7.5167 C.ar    1  LIG1        0.0289
     38 C          -0.9505    3.3290    4.1776 C.3     1  LIG1        0.0783
     39 C           6.5098    1.7515    3.3948 C.ar    1  LIG1       -0.0163
     40 C           5.1879    3.3530    2.1827 C.ar    1  LIG1       -0.0581
     41 C           6.2099    2.4097    2.2058 C.ar    1  LIG1       -0.0581
     42 C          -2.7797    8.5766    5.1070 C.ar    1  LIG1        0.0207
     43 C           6.4270    2.1011    6.8147 C.3     1  LIG1        0.0790
     44 H          -2.8452    3.0028    3.9062 H       1  LIG1        0.2095
     45 H           4.0287    5.2375    8.6346 H       1  LIG1        0.1754
     46 H          -5.2529    9.8083    3.8243 H       1  LIG1        0.1651
     47 H           6.1332    8.5854    1.5479 H       1  LIG1        0.0344
     48 H           7.0163    5.7535    0.7898 H       1  LIG1        0.0235
     49 H           8.0671    7.1393    1.1473 H       1  LIG1        0.0235
     50 H           7.0528    7.1577   -0.2882 H       1  LIG1        0.0235
     51 H           4.3244    6.1949    0.9006 H       1  LIG1        0.0235
     52 H           4.7219    7.4894   -0.2421 H       1  LIG1        0.0235
     53 H           3.8142    7.8596    1.2140 H       1  LIG1        0.0235
     54 H           7.8778    6.2036    3.1660 H       1  LIG1        0.0622
     55 H           3.9242    7.9358    3.4099 H       1  LIG1        0.0833
     56 H           7.7125    5.6863    5.5582 H       1  LIG1        0.0653
     57 H          -1.0089    6.5691    5.0757 H       1  LIG1        0.0646
     58 H           1.6148    8.2722    8.0469 H       1  LIG1        0.0640
     59 H           0.2433    2.3039    5.6887 H       1  LIG1        0.0720
     60 H           0.3264    1.6055    4.0915 H       1  LIG1        0.0720
     61 H           3.6575    4.3615    3.2609 H       1  LIG1        0.0655
     62 H           0.0458   10.1848    8.1900 H       1  LIG1        0.0830
     63 H          -1.1772    4.1439    4.8701 H       1  LIG1        0.0591
     64 H          -0.8132    3.7562    3.1801 H       1  LIG1        0.0591
     65 H           7.3060    1.0110    3.4189 H       1  LIG1        0.0655
     66 H           4.9426    3.8595    1.2527 H       1  LIG1        0.0619
     67 H           6.7666    2.1820    1.3004 H       1  LIG1        0.0619
     68 H           7.2361    1.6223    7.3739 H       1  LIG1        0.0660
     69 H           5.5445    2.1224    7.4602 H       1  LIG1        0.0660
     70 H           6.7508    3.1173    6.5647 H       1  LIG1        0.0660
@<TRIPOS>BOND
     1     1    21    1
     2     1     8    1
     3     1     4    2
     4     1     3    2
     5     2    26    1
     6     2    30    1
     7     5    27    1
     8     5    33    1
     9     6    34    1
    10     6    43    1
    11     7    38    1
    12     8    25    1
    13     9    23   ar
    14     9    21   ar
    15    10    25   ar
    16    10    28   ar
    17    11    27   ar
    18    11    28   ar
    19    12    37   ar
    20    12    35   ar
    21    13    15   ar
    22    13    42   ar
    23    14    42   ar
    24    14    16   ar
    25    15    16   ar
    26    17    18    1
    27    17    20    1
    28    17    19    1
    29    18    23   ar
    30    18    22   ar
    31    21    24   ar
    32    22    24   ar
    33    25    26   ar
    34    26    27   ar
    35    28    29    1
    36    29    31   ar
    37    29    32   ar
    38    30    36   ar
    39    30    34   ar
    40    31    35   ar
    41    32    37   ar
    42    33    38    1
    43    34    39   ar
    44    35    42    1
    45    36    40   ar
    46    39    41   ar
    47    40    41   ar
    48     7    44    1
    49     8    45    1
    50    15    46    1
    51    17    47    1
    52    19    48    1
    53    19    49    1
    54    19    50    1
    55    20    51    1
    56    20    52    1
    57    20    53    1
    58    22    54    1
    59    23    55    1
    60    24    56    1
    61    31    57    1
    62    32    58    1
    63    33    59    1
    64    33    60    1
    65    36    61    1
    66    37    62    1
    67    38    63    1
    68    38    64    1
    69    39    65    1
    70    40    66    1
    71    41    67    1
    72    43    68    1
    73    43    69    1
    74    43    70    1
@<TRIPOS>MOLECULE
9939443
 70 74 0 0 0
SMALL
GASTEIGER

@<TRIPOS>ATOM
      1 S           4.0165    4.0543    9.1368 S.O2    1  LIG1        0.0908
      2 O           4.1700    3.0507    5.6328 O.3     1  LIG1       -0.4435
      3 O           4.4260    4.8914   10.2519 O.2     1  LIG1       -0.1484
      4 O           4.6435    2.7643    8.9476 O.2     1  LIG1       -0.1484
      5 O           1.6375    2.9271    4.4059 O.3     1  LIG1       -0.4715
      6 O           6.5827    1.4006    5.3500 O.3     1  LIG1       -0.4914
      7 O          -1.3891    0.8962    4.3133 O.3     1  LIG1       -0.3917
      8 N           4.3184    5.0236    7.7692 N.pl3   1  LIG1       -0.1950
      9 N           1.6626    3.1594    8.2522 N.ar    1  LIG1       -0.2351
     10 N           2.4755    6.0143    6.9343 N.ar    1  LIG1       -0.2073
     11 N           1.0694    5.0106    5.3119 N.ar    1  LIG1       -0.1899
     12 N          -1.3558    9.2869    6.5887 N.ar    1  LIG1       -0.2552
     13 N          -3.6325    9.4693    4.8390 N.ar    1  LIG1       -0.5621
     14 N          -3.2627    7.3714    4.0803 N.ar    1  LIG1       -0.1535
     15 N          -4.5495    9.0338    3.9678 N.ar    1  LIG1       -0.3597
     16 N          -4.3728    7.7959    3.4943 N.ar    1  LIG1       -0.0878
     17 C          -1.9121    2.8056    9.4971 C.3     1  LIG1       -0.0201
     18 C          -0.4311    3.1582    9.4990 C.ar    1  LIG1       -0.0266
     19 C          -2.1540    1.3358    9.1173 C.3     1  LIG1       -0.0586
     20 C          -2.6489    3.0932   10.8112 C.3     1  LIG1       -0.0586
     21 C           2.2477    3.7757    9.3085 C.ar    1  LIG1        0.1969
     22 C           0.2269    3.7885   10.5651 C.ar    1  LIG1       -0.0535
     23 C           0.3442    2.8873    8.3705 C.ar    1  LIG1        0.0332
     24 C           1.5851    4.1061   10.4772 C.ar    1  LIG1       -0.0160
     25 C           3.3385    4.9999    6.7490 C.ar    1  LIG1        0.1882
     26 C           3.2081    4.0041    5.8057 C.ar    1  LIG1        0.2307
     27 C           1.9712    4.0093    5.1952 C.ar    1  LIG1        0.2641
     28 C           1.3733    5.9958    6.1714 C.ar    1  LIG1        0.1659
     29 C           0.4271    7.1156    6.3173 C.ar    1  LIG1        0.0227
     30 C           4.8329    2.9379    4.4187 C.ar    1  LIG1        0.1702
     31 C          -0.7448    7.1999    5.5506 C.ar    1  LIG1       -0.0252
     32 C           0.6683    8.1573    7.2290 C.ar    1  LIG1       -0.0328
     33 C           0.2315    2.6904    4.3173 C.3     1  LIG1        0.1143
     34 C           5.9603    2.0926    4.3441 C.ar    1  LIG1        0.1621
     35 C          -1.6042    8.2862    5.7033 C.ar    1  LIG1        0.0708
     36 C           4.4159    3.5762    3.2356 C.ar    1  LIG1       -0.0157
     37 C          -0.2357    9.2001    7.3261 C.ar    1  LIG1        0.0289
     38 C           0.0036    1.1834    4.3023 C.3     1  LIG1        0.0783
     39 C           6.5783    1.8567    3.1047 C.ar    1  LIG1       -0.0163
     40 C           5.0417    3.3300    2.0086 C.ar    1  LIG1       -0.0581
     41 C           6.1203    2.4609    1.9397 C.ar    1  LIG1       -0.0581
     42 C          -2.8212    8.3943    4.8962 C.ar    1  LIG1        0.0207
     43 C           6.3955    1.8526    6.6810 C.3     1  LIG1        0.0790
     44 H          -1.4776   -0.0724    4.2781 H       1  LIG1        0.2095
     45 H           4.4627    5.9766    8.0990 H       1  LIG1        0.1754
     46 H          -5.3349    9.6094    3.6784 H       1  LIG1        0.1651
     47 H          -2.3821    3.4333    8.7274 H       1  LIG1        0.0344
     48 H          -1.6365    0.6569    9.8050 H       1  LIG1        0.0235
     49 H          -1.8056    1.1123    8.1036 H       1  LIG1        0.0235
     50 H          -3.2226    1.0962    9.1431 H       1  LIG1        0.0235
     51 H          -2.2364    2.5064   11.6394 H       1  LIG1        0.0235
     52 H          -3.7124    2.8416   10.7225 H       1  LIG1        0.0235
     53 H          -2.5904    4.1541   11.0778 H       1  LIG1        0.0235
     54 H          -0.2976    4.0364   11.4849 H       1  LIG1        0.0622
     55 H          -0.0912    2.4252    7.4881 H       1  LIG1        0.0833
     56 H           2.0999    4.5743   11.3094 H       1  LIG1        0.0653
     57 H          -0.9798    6.4213    4.8265 H       1  LIG1        0.0646
     58 H           1.5538    8.1648    7.8590 H       1  LIG1        0.0640
     59 H          -0.1525    3.1421    3.3956 H       1  LIG1        0.0720
     60 H          -0.3395    3.1103    5.1557 H       1  LIG1        0.0720
     61 H           3.5744    4.2611    3.2119 H       1  LIG1        0.0655
     62 H          -0.0726   10.0199    8.0214 H       1  LIG1        0.0830
     63 H           0.4597    0.7332    3.4143 H       1  LIG1        0.0591
     64 H           0.4639    0.7218    5.1836 H       1  LIG1        0.0591
     65 H           7.4359    1.1874    3.0564 H       1  LIG1        0.0655
     66 H           4.6725    3.8102    1.1051 H       1  LIG1        0.0619
     67 H           6.6058    2.2569    0.9899 H       1  LIG1        0.0619
     68 H           7.2081    1.4493    7.2892 H       1  LIG1        0.0660
     69 H           5.4591    1.4450    7.0664 H       1  LIG1        0.0660
     70 H           6.4434    2.9436    6.7588 H       1  LIG1        0.0660
@<TRIPOS>BOND
     1     1    21    1
     2     1     8    1
     3     1     4    2
     4     1     3    2
     5     2    26    1
     6     2    30    1
     7     5    27    1
     8     5    33    1
     9     6    34    1
    10     6    43    1
    11     7    38    1
    12     8    25    1
    13     9    23   ar
    14     9    21   ar
    15    10    25   ar
    16    10    28   ar
    17    11    27   ar
    18    11    28   ar
    19    12    37   ar
    20    12    35   ar
    21    13    15   ar
    22    13    42   ar
    23    14    42   ar
    24    14    16   ar
    25    15    16   ar
    26    17    18    1
    27    17    20    1
    28    17    19    1
    29    18    23   ar
    30    18    22   ar
    31    21    24   ar
    32    22    24   ar
    33    25    26   ar
    34    26    27   ar
    35    28    29    1
    36    29    31   ar
    37    29    32   ar
    38    30    36   ar
    39    30    34   ar
    40    31    35   ar
    41    32    37   ar
    42    33    38    1
    43    34    39   ar
    44    35    42    1
    45    36    40   ar
    46    39    41   ar
    47    40    41   ar
    48     7    44    1
    49     8    45    1
    50    15    46    1
    51    17    47    1
    52    19    48    1
    53    19    49    1
    54    19    50    1
    55    20    51    1
    56    20    52    1
    57    20    53    1
    58    22    54    1
    59    23    55    1
    60    24    56    1
    61    31    57    1
    62    32    58    1
    63    33    59    1
    64    33    60    1
    65    36    61    1
    66    37    62    1
    67    38    63    1
    68    38    64    1
    69    39    65    1
    70    40    66    1
    71    41    67    1
    72    43    68    1
    73    43    69    1
    74    43    70    1
@<TRIPOS>MOLECULE
9939443
 70 74 0 0 0
SMALL
GASTEIGER

@<TRIPOS>ATOM
      1 S           3.9376    3.9694    9.1002 S.O2    1  LIG1        0.0908
      2 O           4.3282    3.1364    5.5811 O.3     1  LIG1       -0.4435
      3 O           2.7437    3.2151    8.7539 O.2     1  LIG1       -0.1484
      4 O           3.9391    4.8559   10.2465 O.2     1  LIG1       -0.1484
      5 O           1.6502    3.0096    4.2951 O.3     1  LIG1       -0.4715
      6 O           6.3015    1.2854    5.2324 O.3     1  LIG1       -0.4914
      7 O           2.0320    1.2242    7.0712 O.3     1  LIG1       -0.3917
      8 N           4.4248    4.9124    7.7565 N.pl3   1  LIG1       -0.1950
      9 N           6.4817    3.3777    9.5983 N.ar    1  LIG1       -0.2351
     10 N           2.5024    5.9213    7.0217 N.ar    1  LIG1       -0.2073
     11 N           1.1072    4.8880    5.4071 N.ar    1  LIG1       -0.1899
     12 N          -1.5595    8.9522    6.8269 N.ar    1  LIG1       -0.2552
     13 N           0.7264   10.0790    9.4717 N.ar    1  LIG1       -0.5621
     14 N          -1.1848   11.0248    8.7141 N.ar    1  LIG1       -0.1535
     15 N           0.3717   11.1986   10.1191 N.ar    1  LIG1       -0.3597
     16 N          -0.7458   11.7959    9.6989 N.ar    1  LIG1       -0.0878
     17 C           8.6113    0.2607   10.0146 C.3     1  LIG1       -0.0201
     18 C           7.3950    1.1261    9.7496 C.ar    1  LIG1       -0.0266
     19 C           8.2953   -1.0106   10.8091 C.3     1  LIG1       -0.0586
     20 C           9.3176   -0.0918    8.7044 C.3     1  LIG1       -0.0586
     21 C           5.2852    2.8080    9.2942 C.ar    1  LIG1        0.1969
     22 C           6.1479    0.5976    9.3914 C.ar    1  LIG1       -0.0535
     23 C           7.4991    2.5178    9.8263 C.ar    1  LIG1        0.0332
     24 C           5.0664    1.4461    9.1686 C.ar    1  LIG1       -0.0160
     25 C           3.4075    4.9672    6.7648 C.ar    1  LIG1        0.1882
     26 C           3.2900    3.9887    5.7960 C.ar    1  LIG1        0.2307
     27 C           2.0509    3.9473    5.1999 C.ar    1  LIG1        0.2641
     28 C           1.3761    5.8586    6.2977 C.ar    1  LIG1        0.1659
     29 C           0.3651    6.9134    6.4919 C.ar    1  LIG1        0.0227
     30 C           4.8780    3.0203    4.3182 C.ar    1  LIG1        0.1702
     31 C           0.5269    7.9239    7.4550 C.ar    1  LIG1       -0.0252
     32 C          -0.7991    6.9591    5.7119 C.ar    1  LIG1       -0.0328
     33 C           1.7643    1.6355    4.6924 C.3     1  LIG1        0.1143
     34 C           5.8518    2.0220    4.1654 C.ar    1  LIG1        0.1621
     35 C          -0.4415    8.9177    7.5941 C.ar    1  LIG1        0.0708
     36 C           4.5318    3.7876    3.2009 C.ar    1  LIG1       -0.0157
     37 C          -1.7147    7.9773    5.9116 C.ar    1  LIG1        0.0289
     38 C           1.0771    1.2821    6.0141 C.3     1  LIG1        0.0783
     39 C           6.3806    1.7129    2.9112 C.ar    1  LIG1       -0.0163
     40 C           5.0791    3.4954    1.9458 C.ar    1  LIG1       -0.0581
     41 C           5.9878    2.4489    1.7976 C.ar    1  LIG1       -0.0581
     42 C          -0.2883    9.9841    8.5862 C.ar    1  LIG1        0.0207
     43 C           7.2429    2.0611    5.9781 C.3     1  LIG1        0.0790
     44 H           1.9309    2.0258    7.6284 H       1  LIG1        0.2095
     45 H           4.6105    5.8448    8.1282 H       1  LIG1        0.1754
     46 H           0.9190   11.5766   10.8872 H       1  LIG1        0.1651
     47 H           9.3130    0.8416   10.6284 H       1  LIG1        0.0344
     48 H           7.6860   -1.7158   10.2336 H       1  LIG1        0.0235
     49 H           7.7575   -0.7740   11.7337 H       1  LIG1        0.0235
     50 H           9.2208   -1.5290   11.0832 H       1  LIG1        0.0235
     51 H           8.6646   -0.6641    8.0357 H       1  LIG1        0.0235
     52 H          10.2143   -0.6913    8.8944 H       1  LIG1        0.0235
     53 H           9.6308    0.8130    8.1718 H       1  LIG1        0.0235
     54 H           6.0009   -0.4744    9.2840 H       1  LIG1        0.0622
     55 H           8.4418    2.9960   10.0838 H       1  LIG1        0.0833
     56 H           4.0930    1.0434    8.9078 H       1  LIG1        0.0653
     57 H           1.4066    7.9377    8.0947 H       1  LIG1        0.0646
     58 H          -0.9948    6.2105    4.9485 H       1  LIG1        0.0640
     59 H           2.8064    1.3070    4.6729 H       1  LIG1        0.0720
     60 H           1.2539    1.0822    3.8954 H       1  LIG1        0.0720
     61 H           3.8210    4.6056    3.2599 H       1  LIG1        0.0655
     62 H          -2.6238    8.0371    5.3193 H       1  LIG1        0.0830
     63 H           0.2755    1.9784    6.2780 H       1  LIG1        0.0591
     64 H           0.6536    0.2758    5.9393 H       1  LIG1        0.0591
     65 H           7.1000    0.9054    2.8089 H       1  LIG1        0.0655
     66 H           4.7798    4.0783    1.0775 H       1  LIG1        0.0619
     67 H           6.3943    2.2126    0.8176 H       1  LIG1        0.0619
     68 H           7.7760    1.3822    6.6459 H       1  LIG1        0.0660
     69 H           6.7348    2.8141    6.5869 H       1  LIG1        0.0660
     70 H           7.9850    2.5420    5.3297 H       1  LIG1        0.0660
@<TRIPOS>BOND
     1     1    21    1
     2     1     8    1
     3     1     4    2
     4     1     3    2
     5     2    26    1
     6     2    30    1
     7     5    27    1
     8     5    33    1
     9     6    34    1
    10     6    43    1
    11     7    38    1
    12     8    25    1
    13     9    23   ar
    14     9    21   ar
    15    10    25   ar
    16    10    28   ar
    17    11    27   ar
    18    11    28   ar
    19    12    37   ar
    20    12    35   ar
    21    13    15   ar
    22    13    42   ar
    23    14    42   ar
    24    14    16   ar
    25    15    16   ar
    26    17    18    1
    27    17    20    1
    28    17    19    1
    29    18    23   ar
    30    18    22   ar
    31    21    24   ar
    32    22    24   ar
    33    25    26   ar
    34    26    27   ar
    35    28    29    1
    36    29    31   ar
    37    29    32   ar
    38    30    36   ar
    39    30    34   ar
    40    31    35   ar
    41    32    37   ar
    42    33    38    1
    43    34    39   ar
    44    35    42    1
    45    36    40   ar
    46    39    41   ar
    47    40    41   ar
    48     7    44    1
    49     8    45    1
    50    15    46    1
    51    17    47    1
    52    19    48    1
    53    19    49    1
    54    19    50    1
    55    20    51    1
    56    20    52    1
    57    20    53    1
    58    22    54    1
    59    23    55    1
    60    24    56    1
    61    31    57    1
    62    32    58    1
    63    33    59    1
    64    33    60    1
    65    36    61    1
    66    37    62    1
    67    38    63    1
    68    38    64    1
    69    39    65    1
    70    40    66    1
    71    41    67    1
    72    43    68    1
    73    43    69    1
    74    43    70    1
@<TRIPOS>MOLECULE
9939443
 70 74 0 0 0
SMALL
GASTEIGER

@<TRIPOS>ATOM
      1 S           4.0167    4.0563    9.1507 S.O2    1  LIG1        0.0908
      2 O           4.1565    3.0369    5.6428 O.3     1  LIG1       -0.4435
      3 O           4.3999    4.9145   10.2590 O.2     1  LIG1       -0.1484
      4 O           4.6629    2.7721    8.9886 O.2     1  LIG1       -0.1484
      5 O           1.6190    2.9126    4.4272 O.3     1  LIG1       -0.4715
      6 O           6.5775    1.4034    5.3641 O.3     1  LIG1       -0.4914
      7 O          -1.4044    0.8800    4.3142 O.3     1  LIG1       -0.3917
      8 N           4.3234    5.0088    7.7709 N.pl3   1  LIG1       -0.1950
      9 N           1.7071    3.0433    8.2794 N.ar    1  LIG1       -0.2351
     10 N           2.4654    5.9941    6.9578 N.ar    1  LIG1       -0.2073
     11 N           1.0520    4.9905    5.3424 N.ar    1  LIG1       -0.1899
     12 N          -1.3666    9.2711    6.6143 N.ar    1  LIG1       -0.2552
     13 N          -3.6316    9.4617    4.8488 N.ar    1  LIG1       -0.5621
     14 N          -3.2759    7.3547    4.1093 N.ar    1  LIG1       -0.1535
     15 N          -4.5477    9.0271    3.9770 N.ar    1  LIG1       -0.3597
     16 N          -4.3796    7.7841    3.5137 N.ar    1  LIG1       -0.0878
     17 C          -1.9044    2.8422    9.4789 C.3     1  LIG1       -0.0201
     18 C          -0.4234    3.1613    9.4343 C.ar    1  LIG1       -0.0266
     19 C          -2.6843    3.7838    8.5582 C.3     1  LIG1       -0.0586
     20 C          -2.2116    1.3801    9.1358 C.3     1  LIG1       -0.0586
     21 C           2.2473    3.7657    9.2954 C.ar    1  LIG1        0.1969
     22 C           0.1829    3.8952   10.4639 C.ar    1  LIG1       -0.0535
     23 C           0.3877    2.7702    8.3723 C.ar    1  LIG1        0.0332
     24 C           1.5415    4.2047   10.4026 C.ar    1  LIG1       -0.0160
     25 C           3.3312    4.9854    6.7620 C.ar    1  LIG1        0.1882
     26 C           3.1962    3.9896    5.8193 C.ar    1  LIG1        0.2307
     27 C           1.9550    3.9929    5.2170 C.ar    1  LIG1        0.2641
     28 C           1.3576    5.9755    6.2017 C.ar    1  LIG1        0.1659
     29 C           0.4139    7.0957    6.3513 C.ar    1  LIG1        0.0227
     30 C           4.8206    2.9272    4.4288 C.ar    1  LIG1        0.1702
     31 C          -0.7599    7.1793    5.5817 C.ar    1  LIG1       -0.0252
     32 C           0.6533    8.1387    7.2587 C.ar    1  LIG1       -0.0328
     33 C           0.2128    2.6764    4.3460 C.3     1  LIG1        0.1143
     34 C           5.9517    2.0888    4.3563 C.ar    1  LIG1        0.1621
     35 C          -1.6142    8.2688    5.7324 C.ar    1  LIG1        0.0708
     36 C           4.3973    3.5609    3.2455 C.ar    1  LIG1       -0.0157
     37 C          -0.2450    9.1813    7.3540 C.ar    1  LIG1        0.0289
     38 C          -0.0125    1.1697    4.2958 C.3     1  LIG1        0.0783
     39 C           6.5709    1.8523    3.1169 C.ar    1  LIG1       -0.0163
     40 C           5.0247    3.3154    2.0183 C.ar    1  LIG1       -0.0581
     41 C           6.1075    2.4521    1.9513 C.ar    1  LIG1       -0.0581
     42 C          -2.8296    8.3800    4.9191 C.ar    1  LIG1        0.0207
     43 C           6.3938    1.8662    6.6916 C.3     1  LIG1        0.0790
     44 H          -1.4916   -0.0876    4.2566 H       1  LIG1        0.2095
     45 H           4.4739    5.9632    8.0938 H       1  LIG1        0.1754
     46 H          -5.3271    9.6074    3.6782 H       1  LIG1        0.1651
     47 H          -2.2606    3.0049   10.5049 H       1  LIG1        0.0344
     48 H          -2.3888    3.6622    7.5099 H       1  LIG1        0.0235
     49 H          -2.5142    4.8310    8.8319 H       1  LIG1        0.0235
     50 H          -3.7603    3.5902    8.6285 H       1  LIG1        0.0235
     51 H          -1.9880    1.1456    8.0893 H       1  LIG1        0.0235
     52 H          -3.2733    1.1636    9.2980 H       1  LIG1        0.0235
     53 H          -1.6301    0.6975    9.7652 H       1  LIG1        0.0235
     54 H          -0.3993    4.2226   11.3230 H       1  LIG1        0.0622
     55 H          -0.0134    2.2101    7.5317 H       1  LIG1        0.0833
     56 H           2.0235    4.7541   11.2040 H       1  LIG1        0.0653
     57 H          -0.9957    6.4014    4.8589 H       1  LIG1        0.0646
     58 H           1.5402    8.1453    7.8879 H       1  LIG1        0.0640
     59 H          -0.1812    3.1503    3.4395 H       1  LIG1        0.0720
     60 H          -0.3483    3.0741    5.2016 H       1  LIG1        0.0720
     61 H           3.5515    4.2386    3.2208 H       1  LIG1        0.0655
     62 H          -0.0833   10.0063    8.0480 H       1  LIG1        0.0830
     63 H           0.4352    0.7429    3.3924 H       1  LIG1        0.0591
     64 H           0.4576    0.6882    5.1604 H       1  LIG1        0.0591
     65 H           7.4314    1.1877    3.0696 H       1  LIG1        0.0655
     66 H           4.6519    3.7901    1.1141 H       1  LIG1        0.0619
     67 H           6.5932    2.2472    1.0013 H       1  LIG1        0.0619
     68 H           7.2115    1.4700    7.3017 H       1  LIG1        0.0660
     69 H           5.4609    1.4596    7.0854 H       1  LIG1        0.0660
     70 H           6.4398    2.9581    6.7613 H       1  LIG1        0.0660
@<TRIPOS>BOND
     1     1    21    1
     2     1     8    1
     3     1     4    2
     4     1     3    2
     5     2    26    1
     6     2    30    1
     7     5    27    1
     8     5    33    1
     9     6    34    1
    10     6    43    1
    11     7    38    1
    12     8    25    1
    13     9    23   ar
    14     9    21   ar
    15    10    25   ar
    16    10    28   ar
    17    11    27   ar
    18    11    28   ar
    19    12    37   ar
    20    12    35   ar
    21    13    15   ar
    22    13    42   ar
    23    14    42   ar
    24    14    16   ar
    25    15    16   ar
    26    17    18    1
    27    17    20    1
    28    17    19    1
    29    18    23   ar
    30    18    22   ar
    31    21    24   ar
    32    22    24   ar
    33    25    26   ar
    34    26    27   ar
    35    28    29    1
    36    29    31   ar
    37    29    32   ar
    38    30    36   ar
    39    30    34   ar
    40    31    35   ar
    41    32    37   ar
    42    33    38    1
    43    34    39   ar
    44    35    42    1
    45    36    40   ar
    46    39    41   ar
    47    40    41   ar
    48     7    44    1
    49     8    45    1
    50    15    46    1
    51    17    47    1
    52    19    48    1
    53    19    49    1
    54    19    50    1
    55    20    51    1
    56    20    52    1
    57    20    53    1
    58    22    54    1
    59    23    55    1
    60    24    56    1
    61    31    57    1
    62    32    58    1
    63    33    59    1
    64    33    60    1
    65    36    61    1
    66    37    62    1
    67    38    63    1
    68    38    64    1
    69    39    65    1
    70    40    66    1
    71    41    67    1
    72    43    68    1
    73    43    69    1
    74    43    70    1
@<TRIPOS>MOLECULE
9939443
 70 74 0 0 0
SMALL
GASTEIGER

@<TRIPOS>ATOM
      1 S           5.5936    6.3087    7.4512 S.O2    1  LIG1        0.0908
      2 O           4.0756    3.0010    5.8432 O.3     1  LIG1       -0.4435
      3 O           6.8704    5.8109    7.9315 O.2     1  LIG1       -0.1484
      4 O           5.0417    7.5154    8.0352 O.2     1  LIG1       -0.1484
      5 O           1.5362    2.8310    4.7408 O.3     1  LIG1       -0.4715
      6 O           6.3587    1.3446    5.7297 O.3     1  LIG1       -0.4914
      7 O           0.3990    0.6816    3.1319 O.3     1  LIG1       -0.3917
      8 N           4.4852    5.0535    7.7424 N.pl3   1  LIG1       -0.1950
      9 N           4.6552    7.1286    5.0983 N.ar    1  LIG1       -0.2351
     10 N           2.4622    5.9894    7.1430 N.ar    1  LIG1       -0.2073
     11 N           0.9817    4.9448    5.6079 N.ar    1  LIG1       -0.1899
     12 N          -1.2878    9.3527    6.6615 N.ar    1  LIG1       -0.2552
     13 N          -3.5761    9.4950    4.9146 N.ar    1  LIG1       -0.5621
     14 N          -3.2348    7.3660    4.2343 N.ar    1  LIG1       -0.1535
     15 N          -4.4874    9.0472    4.0462 N.ar    1  LIG1       -0.3597
     16 N          -4.3272    7.7904    3.6166 N.ar    1  LIG1       -0.0878
     17 C           5.9335    7.4643    1.5198 C.3     1  LIG1       -0.0201
     18 C           5.8817    7.0695    2.9906 C.ar    1  LIG1       -0.0266
     19 C           7.0793    6.8204    0.7246 C.3     1  LIG1       -0.0586
     20 C           4.6172    7.1792    0.7804 C.3     1  LIG1       -0.0586
     21 C           5.7190    6.5208    5.6800 C.ar    1  LIG1        0.1969
     22 C           6.9464    6.4358    3.6497 C.ar    1  LIG1       -0.0535
     23 C           4.7754    7.4002    3.7795 C.ar    1  LIG1        0.0332
     24 C           6.8748    6.1586    5.0132 C.ar    1  LIG1       -0.0160
     25 C           3.3472    5.0216    6.8854 C.ar    1  LIG1        0.1882
     26 C           3.1516    3.9902    5.9965 C.ar    1  LIG1        0.2307
     27 C           1.8850    3.9554    5.4564 C.ar    1  LIG1        0.2641
     28 C           1.3305    5.9557    6.4228 C.ar    1  LIG1        0.1659
     29 C           0.4185    7.1088    6.5239 C.ar    1  LIG1        0.0227
     30 C           4.7722    2.8968    4.6539 C.ar    1  LIG1        0.1702
     31 C          -0.7591    7.1835    5.7599 C.ar    1  LIG1       -0.0252
     32 C           0.7070    8.1985    7.3585 C.ar    1  LIG1       -0.0328
     33 C           0.1375    2.6947    4.4661 C.3     1  LIG1        0.1143
     34 C           5.8884    2.0415    4.6440 C.ar    1  LIG1        0.1621
     35 C          -1.5758    8.3081    5.8452 C.ar    1  LIG1        0.0708
     36 C           4.4067    3.5301    3.4579 C.ar    1  LIG1       -0.0157
     37 C          -0.1611    9.2742    7.3943 C.ar    1  LIG1        0.0289
     38 C          -0.1724    1.2047    4.3273 C.3     1  LIG1        0.0783
     39 C           6.5740    1.7892    3.4510 C.ar    1  LIG1       -0.0163
     40 C           5.1067    3.2833    2.2724 C.ar    1  LIG1       -0.0581
     41 C           6.1868    2.4093    2.2667 C.ar    1  LIG1       -0.0581
     42 C          -2.7854    8.4088    5.0222 C.ar    1  LIG1        0.0207
     43 C           6.5362    2.1323    6.9036 C.3     1  LIG1        0.0790
     44 H           0.3821   -0.2878    3.2099 H       1  LIG1        0.2095
     45 H           4.1005    5.3020    8.6562 H       1  LIG1        0.1754
     46 H          -5.2580    9.6268    3.7247 H       1  LIG1        0.1651
     47 H           6.1008    8.5498    1.4958 H       1  LIG1        0.0344
     48 H           7.0232    5.7265    0.7552 H       1  LIG1        0.0235
     49 H           8.0564    7.1258    1.1138 H       1  LIG1        0.0235
     50 H           7.0475    7.1291   -0.3261 H       1  LIG1        0.0235
     51 H           4.3325    6.1255    0.8630 H       1  LIG1        0.0235
     52 H           4.7053    7.4243   -0.2838 H       1  LIG1        0.0235
     53 H           3.7916    7.7816    1.1720 H       1  LIG1        0.0235
     54 H           7.8575    6.1602    3.1253 H       1  LIG1        0.0622
     55 H           3.9201    7.9295    3.3675 H       1  LIG1        0.0833
     56 H           7.7072    5.6906    5.5284 H       1  LIG1        0.0653
     57 H          -1.0231    6.3711    5.0856 H       1  LIG1        0.0646
     58 H           1.6081    8.2201    7.9661 H       1  LIG1        0.0640
     59 H          -0.0872    3.2260    3.5354 H       1  LIG1        0.0720
     60 H          -0.4790    3.0852    5.2847 H       1  LIG1        0.0720
     61 H           3.5569    4.2037    3.3969 H       1  LIG1        0.0655
     62 H           0.0406   10.1337    8.0304 H       1  LIG1        0.0830
     63 H           0.2430    0.6501    5.1757 H       1  LIG1        0.0591
     64 H          -1.2536    1.0423    4.2829 H       1  LIG1        0.0591
     65 H           7.4147    1.0987    3.4492 H       1  LIG1        0.0655
     66 H           4.7888    3.7578    1.3477 H       1  LIG1        0.0619
     67 H           6.7189    2.2017    1.3417 H       1  LIG1        0.0619
     68 H           7.3790    1.7131    7.4620 H       1  LIG1        0.0660
     69 H           5.6499    2.0598    7.5402 H       1  LIG1        0.0660
     70 H           6.7742    3.1776    6.6794 H       1  LIG1        0.0660
@<TRIPOS>BOND
     1     1    21    1
     2     1     8    1
     3     1     4    2
     4     1     3    2
     5     2    26    1
     6     2    30    1
     7     5    27    1
     8     5    33    1
     9     6    34    1
    10     6    43    1
    11     7    38    1
    12     8    25    1
    13     9    23   ar
    14     9    21   ar
    15    10    25   ar
    16    10    28   ar
    17    11    27   ar
    18    11    28   ar
    19    12    37   ar
    20    12    35   ar
    21    13    15   ar
    22    13    42   ar
    23    14    42   ar
    24    14    16   ar
    25    15    16   ar
    26    17    18    1
    27    17    20    1
    28    17    19    1
    29    18    23   ar
    30    18    22   ar
    31    21    24   ar
    32    22    24   ar
    33    25    26   ar
    34    26    27   ar
    35    28    29    1
    36    29    31   ar
    37    29    32   ar
    38    30    36   ar
    39    30    34   ar
    40    31    35   ar
    41    32    37   ar
    42    33    38    1
    43    34    39   ar
    44    35    42    1
    45    36    40   ar
    46    39    41   ar
    47    40    41   ar
    48     7    44    1
    49     8    45    1
    50    15    46    1
    51    17    47    1
    52    19    48    1
    53    19    49    1
    54    19    50    1
    55    20    51    1
    56    20    52    1
    57    20    53    1
    58    22    54    1
    59    23    55    1
    60    24    56    1
    61    31    57    1
    62    32    58    1
    63    33    59    1
    64    33    60    1
    65    36    61    1
    66    37    62    1
    67    38    63    1
    68    38    64    1
    69    39    65    1
    70    40    66    1
    71    41    67    1
    72    43    68    1
    73    43    69    1
    74    43    70    1
@<TRIPOS>MOLECULE
9939443
 70 74 0 0 0
SMALL
GASTEIGER

@<TRIPOS>ATOM
      1 S           5.5642    6.3073    7.4881 S.O2    1  LIG1        0.0908
      2 O           4.0940    3.0556    5.7763 O.3     1  LIG1       -0.4435
      3 O           6.8321    5.7997    7.9821 O.2     1  LIG1       -0.1484
      4 O           5.0039    7.5083    8.0789 O.2     1  LIG1       -0.1484
      5 O           1.5590    2.9018    4.6240 O.3     1  LIG1       -0.4715
      6 O           6.4260    1.4216    5.6437 O.3     1  LIG1       -0.4914
      7 O          -1.4813    0.9296    4.2281 O.3     1  LIG1       -0.3917
      8 N           4.4483    5.0480    7.7442 N.pl3   1  LIG1       -0.1950
      9 N           4.6376    7.1065    5.1261 N.ar    1  LIG1       -0.2351
     10 N           2.4302    5.9853    7.1404 N.ar    1  LIG1       -0.2073
     11 N           0.9891    4.9847    5.5435 N.ar    1  LIG1       -0.1899
     12 N          -1.3065    9.3637    6.6604 N.ar    1  LIG1       -0.2552
     13 N          -3.5384    9.5480    4.8414 N.ar    1  LIG1       -0.5621
     14 N          -3.2914    7.3729    4.2731 N.ar    1  LIG1       -0.1535
     15 N          -4.4686    9.0961    3.9940 N.ar    1  LIG1       -0.3597
     16 N          -4.3629    7.8138    3.6299 N.ar    1  LIG1       -0.0878
     17 C           5.9539    7.4860    1.5645 C.3     1  LIG1       -0.0201
     18 C           5.8925    7.0939    3.0354 C.ar    1  LIG1       -0.0266
     19 C           7.0804    6.8039    0.7725 C.3     1  LIG1       -0.0586
     20 C           4.6323    7.2378    0.8214 C.3     1  LIG1       -0.0586
     21 C           5.7161    6.5430    5.7237 C.ar    1  LIG1        0.1969
     22 C           6.9747    6.5094    3.7117 C.ar    1  LIG1       -0.0535
     23 C           4.7640    7.3814    3.8093 C.ar    1  LIG1        0.0332
     24 C           6.8954    6.2290    5.0747 C.ar    1  LIG1       -0.0160
     25 C           3.3258    5.0314    6.8668 C.ar    1  LIG1        0.1882
     26 C           3.1564    4.0294    5.9366 C.ar    1  LIG1        0.2307
     27 C           1.8963    4.0033    5.3831 C.ar    1  LIG1        0.2641
     28 C           1.3129    5.9715    6.3971 C.ar    1  LIG1        0.1659
     29 C           0.3983    7.1184    6.5110 C.ar    1  LIG1        0.0227
     30 C           4.7657    2.9174    4.5759 C.ar    1  LIG1        0.1702
     31 C          -0.7798    7.1981    5.7478 C.ar    1  LIG1       -0.0252
     32 C           0.6834    8.2019    7.3545 C.ar    1  LIG1       -0.0328
     33 C           0.1547    2.6982    4.4564 C.3     1  LIG1        0.1143
     34 C           5.8894    2.0728    4.5641 C.ar    1  LIG1        0.1621
     35 C          -1.5942    8.3233    5.8377 C.ar    1  LIG1        0.0708
     36 C           4.3574    3.5045    3.3659 C.ar    1  LIG1       -0.0157
     37 C          -0.1817    9.2780    7.3976 C.ar    1  LIG1        0.0289
     38 C          -0.0961    1.1956    4.4069 C.3     1  LIG1        0.0783
     39 C           6.5329    1.7775    3.3546 C.ar    1  LIG1       -0.0163
     40 C           5.0112    3.2073    2.1648 C.ar    1  LIG1       -0.0581
     41 C           6.0947    2.3377    2.1571 C.ar    1  LIG1       -0.0581
     42 C          -2.7987    8.4337    5.0100 C.ar    1  LIG1        0.0207
     43 C           6.4738    2.1620    6.8589 C.3     1  LIG1        0.0790
     44 H          -1.5922   -0.0367    4.2680 H       1  LIG1        0.2095
     45 H           4.0456    5.2889    8.6529 H       1  LIG1        0.1754
     46 H          -5.2114    9.6919    3.6398 H       1  LIG1        0.1651
     47 H           6.1522    8.5657    1.5384 H       1  LIG1        0.0344
     48 H           7.0000    5.7123    0.8219 H       1  LIG1        0.0235
     49 H           8.0666    7.0938    1.1495 H       1  LIG1        0.0235
     50 H           7.0491    7.0971   -0.2825 H       1  LIG1        0.0235
     51 H           4.3124    6.1938    0.9118 H       1  LIG1        0.0235
     52 H           4.7316    7.4712   -0.2450 H       1  LIG1        0.0235
     53 H           3.8255    7.8723    1.2034 H       1  LIG1        0.0235
     54 H           7.9057    6.2754    3.2017 H       1  LIG1        0.0622
     55 H           3.8920    7.8746    3.3871 H       1  LIG1        0.0833
     56 H           7.7398    5.7961    5.6025 H       1  LIG1        0.0653
     57 H          -1.0447    6.3896    5.0685 H       1  LIG1        0.0646
     58 H           1.5834    8.2188    7.9644 H       1  LIG1        0.0640
     59 H          -0.1688    3.1709    3.5213 H       1  LIG1        0.0720
     60 H          -0.4483    3.1157    5.2737 H       1  LIG1        0.0720
     61 H           3.5062    4.1768    3.3065 H       1  LIG1        0.0655
     62 H           0.0183   10.1322    8.0401 H       1  LIG1        0.0830
     63 H           0.4673    0.7341    3.5894 H       1  LIG1        0.0591
     64 H           0.2349    0.7301    5.3414 H       1  LIG1        0.0591
     65 H           7.3825    1.0983    3.3507 H       1  LIG1        0.0655
     66 H           4.6564    3.6397    1.2342 H       1  LIG1        0.0619
     67 H           6.5929    2.0905    1.2244 H       1  LIG1        0.0619
     68 H           7.3189    1.7877    7.4465 H       1  LIG1        0.0660
     69 H           5.5665    1.9869    7.4432 H       1  LIG1        0.0660
     70 H           6.6396    3.2316    6.6902 H       1  LIG1        0.0660
@<TRIPOS>BOND
     1     1    21    1
     2     1     8    1
     3     1     4    2
     4     1     3    2
     5     2    26    1
     6     2    30    1
     7     5    27    1
     8     5    33    1
     9     6    34    1
    10     6    43    1
    11     7    38    1
    12     8    25    1
    13     9    23   ar
    14     9    21   ar
    15    10    25   ar
    16    10    28   ar
    17    11    27   ar
    18    11    28   ar
    19    12    37   ar
    20    12    35   ar
    21    13    15   ar
    22    13    42   ar
    23    14    42   ar
    24    14    16   ar
    25    15    16   ar
    26    17    18    1
    27    17    20    1
    28    17    19    1
    29    18    23   ar
    30    18    22   ar
    31    21    24   ar
    32    22    24   ar
    33    25    26   ar
    34    26    27   ar
    35    28    29    1
    36    29    31   ar
    37    29    32   ar
    38    30    36   ar
    39    30    34   ar
    40    31    35   ar
    41    32    37   ar
    42    33    38    1
    43    34    39   ar
    44    35    42    1
    45    36    40   ar
    46    39    41   ar
    47    40    41   ar
    48     7    44    1
    49     8    45    1
    50    15    46    1
    51    17    47    1
    52    19    48    1
    53    19    49    1
    54    19    50    1
    55    20    51    1
    56    20    52    1
    57    20    53    1
    58    22    54    1
    59    23    55    1
    60    24    56    1
    61    31    57    1
    62    32    58    1
    63    33    59    1
    64    33    60    1
    65    36    61    1
    66    37    62    1
    67    38    63    1
    68    38    64    1
    69    39    65    1
    70    40    66    1
    71    41    67    1
    72    43    68    1
    73    43    69    1
    74    43    70    1
@<TRIPOS>MOLECULE
9939443
 70 74 0 0 0
SMALL
GASTEIGER

@<TRIPOS>ATOM
      1 S           3.9436    3.9600    9.0541 S.O2    1  LIG1        0.0908
      2 O           4.2113    3.2520    5.6063 O.3     1  LIG1       -0.4435
      3 O           4.3941    4.6364   10.2595 O.2     1  LIG1       -0.1484
      4 O           4.5245    2.6875    8.6864 O.2     1  LIG1       -0.1484
      5 O           1.7907    3.2320    4.1089 O.3     1  LIG1       -0.4715
      6 O           6.3818    1.5749    5.5643 O.3     1  LIG1       -0.4914
      7 O          -0.3023    2.8412    1.1474 O.3     1  LIG1       -0.3917
      8 N           4.2300    5.0918    7.8145 N.pl3   1  LIG1       -0.1950
      9 N           1.5848    3.1442    8.1290 N.ar    1  LIG1       -0.2351
     10 N           2.4026    6.0959    6.9671 N.ar    1  LIG1       -0.2073
     11 N           1.0782    5.1618    5.2328 N.ar    1  LIG1       -0.1899
     12 N          -1.5327    9.2193    6.7876 N.ar    1  LIG1       -0.2552
     13 N          -4.2957    8.7818    6.1346 N.ar    1  LIG1       -0.5621
     14 N          -3.8530    6.6612    5.4871 N.ar    1  LIG1       -0.1535
     15 N          -5.3720    8.0979    5.7325 N.ar    1  LIG1       -0.3597
     16 N          -5.1583    6.8367    5.3428 N.ar    1  LIG1       -0.0878
     17 C          -2.0002    2.8676    9.4099 C.3     1  LIG1       -0.0201
     18 C          -0.5164    3.1742    9.3356 C.ar    1  LIG1       -0.0266
     19 C          -2.8195    4.1157    9.0725 C.3     1  LIG1       -0.0586
     20 C          -2.4502    1.6923    8.5333 C.3     1  LIG1       -0.0586
     21 C           2.1669    3.7288    9.2076 C.ar    1  LIG1        0.1969
     22 C           0.1311    3.7839   10.4233 C.ar    1  LIG1       -0.0535
     23 C           0.2618    2.8913    8.2166 C.ar    1  LIG1        0.0332
     24 C           1.4955    4.0676   10.3683 C.ar    1  LIG1       -0.0160
     25 C           3.2859    5.1073    6.7602 C.ar    1  LIG1        0.1882
     26 C           3.2167    4.1707    5.7496 C.ar    1  LIG1        0.2307
     27 C           2.0284    4.2177    5.0460 C.ar    1  LIG1        0.2641
     28 C           1.3233    6.0866    6.1735 C.ar    1  LIG1        0.1659
     29 C           0.3406    7.1591    6.3717 C.ar    1  LIG1        0.0227
     30 C           4.8798    3.0964    4.4075 C.ar    1  LIG1        0.1702
     31 C          -1.0114    6.9880    6.0397 C.ar    1  LIG1       -0.0252
     32 C           0.7211    8.3956    6.9136 C.ar    1  LIG1       -0.0328
     33 C           0.6384    3.4444    3.2928 C.3     1  LIG1        0.1143
     34 C           5.9469    2.1827    4.4146 C.ar    1  LIG1        0.1621
     35 C          -1.9145    8.0239    6.2668 C.ar    1  LIG1        0.0708
     36 C           4.5888    3.7504    3.2052 C.ar    1  LIG1       -0.0157
     37 C          -0.2325    9.3796    7.0939 C.ar    1  LIG1        0.0289
     38 C           0.8162    2.6494    2.0038 C.3     1  LIG1        0.0783
     39 C           6.6196    1.8386    3.2394 C.ar    1  LIG1       -0.0163
     40 C           5.2708    3.4179    2.0270 C.ar    1  LIG1       -0.0581
     41 C           6.2732    2.4513    2.0402 C.ar    1  LIG1       -0.0581
     42 C          -3.3374    7.8486    5.9674 C.ar    1  LIG1        0.0207
     43 C           7.1128    2.5001    6.3742 C.3     1  LIG1        0.0790
     44 H          -0.1234    2.3416    0.3319 H       1  LIG1        0.2095
     45 H           4.3133    6.0122    8.2408 H       1  LIG1        0.1754
     46 H          -6.3008    8.5096    5.7257 H       1  LIG1        0.1651
     47 H          -2.2245    2.5804   10.4464 H       1  LIG1        0.0344
     48 H          -2.6218    4.4609    8.0514 H       1  LIG1        0.0235
     49 H          -2.5838    4.9407    9.7537 H       1  LIG1        0.0235
     50 H          -3.8921    3.9106    9.1591 H       1  LIG1        0.0235
     51 H          -2.3803    1.9276    7.4655 H       1  LIG1        0.0235
     52 H          -3.4953    1.4374    8.7417 H       1  LIG1        0.0235
     53 H          -1.8448    0.7996    8.7256 H       1  LIG1        0.0235
     54 H          -0.4272    4.0285   11.3252 H       1  LIG1        0.0622
     55 H          -0.1572    2.4364    7.3230 H       1  LIG1        0.0833
     56 H           2.0062    4.5167   11.2131 H       1  LIG1        0.0653
     57 H          -1.3541    6.0440    5.6215 H       1  LIG1        0.0646
     58 H           1.7531    8.5962    7.1876 H       1  LIG1        0.0640
     59 H           0.5003    4.4988    3.0212 H       1  LIG1        0.0720
     60 H          -0.2582    3.1052    3.8257 H       1  LIG1        0.0720
     61 H           3.8206    4.5116    3.1336 H       1  LIG1        0.0655
     62 H           0.0321   10.3506    7.5040 H       1  LIG1        0.0830
     63 H           1.7205    2.9804    1.4811 H       1  LIG1        0.0591
     64 H           0.9287    1.5817    2.2180 H       1  LIG1        0.0591
     65 H           7.4176    1.1018    3.2694 H       1  LIG1        0.0655
     66 H           5.0081    3.9099    1.0934 H       1  LIG1        0.0619
     67 H           6.7921    2.1849    1.1233 H       1  LIG1        0.0619
     68 H           8.0611    2.0326    6.6552 H       1  LIG1        0.0660
     69 H           6.5525    2.7035    7.2865 H       1  LIG1        0.0660
     70 H           7.3385    3.4508    5.8742 H       1  LIG1        0.0660
@<TRIPOS>BOND
     1     1    21    1
     2     1     8    1
     3     1     4    2
     4     1     3    2
     5     2    26    1
     6     2    30    1
     7     5    27    1
     8     5    33    1
     9     6    34    1
    10     6    43    1
    11     7    38    1
    12     8    25    1
    13     9    23   ar
    14     9    21   ar
    15    10    25   ar
    16    10    28   ar
    17    11    27   ar
    18    11    28   ar
    19    12    37   ar
    20    12    35   ar
    21    13    15   ar
    22    13    42   ar
    23    14    42   ar
    24    14    16   ar
    25    15    16   ar
    26    17    18    1
    27    17    20    1
    28    17    19    1
    29    18    23   ar
    30    18    22   ar
    31    21    24   ar
    32    22    24   ar
    33    25    26   ar
    34    26    27   ar
    35    28    29    1
    36    29    31   ar
    37    29    32   ar
    38    30    36   ar
    39    30    34   ar
    40    31    35   ar
    41    32    37   ar
    42    33    38    1
    43    34    39   ar
    44    35    42    1
    45    36    40   ar
    46    39    41   ar
    47    40    41   ar
    48     7    44    1
    49     8    45    1
    50    15    46    1
    51    17    47    1
    52    19    48    1
    53    19    49    1
    54    19    50    1
    55    20    51    1
    56    20    52    1
    57    20    53    1
    58    22    54    1
    59    23    55    1
    60    24    56    1
    61    31    57    1
    62    32    58    1
    63    33    59    1
    64    33    60    1
    65    36    61    1
    66    37    62    1
    67    38    63    1
    68    38    64    1
    69    39    65    1
    70    40    66    1
    71    41    67    1
    72    43    68    1
    73    43    69    1
    74    43    70    1
@<TRIPOS>MOLECULE
9939443
 70 74 0 0 0
SMALL
GASTEIGER

@<TRIPOS>ATOM
      1 S           5.5672    6.2833    7.4465 S.O2    1  LIG1        0.0908
      2 O           4.0465    2.9916    5.8040 O.3     1  LIG1       -0.4435
      3 O           6.8360    5.7851    7.9526 O.2     1  LIG1       -0.1484
      4 O           5.0035    7.4886    8.0193 O.2     1  LIG1       -0.1484
      5 O           1.5252    2.8726    4.6385 O.3     1  LIG1       -0.4715
      6 O           6.2940    1.3100    5.7077 O.3     1  LIG1       -0.4914
      7 O          -1.5236    0.9354    4.1403 O.3     1  LIG1       -0.3917
      8 N           4.4601    5.0219    7.7183 N.pl3   1  LIG1       -0.1950
      9 N           4.6088    6.8917    5.0323 N.ar    1  LIG1       -0.2351
     10 N           2.4324    5.9651    7.1384 N.ar    1  LIG1       -0.2073
     11 N           0.9703    4.9583    5.5602 N.ar    1  LIG1       -0.1899
     12 N          -1.3678    9.2917    6.7564 N.ar    1  LIG1       -0.2552
     13 N          -3.1591    7.5745    4.0482 N.ar    1  LIG1       -0.5621
     14 N          -3.7203    9.4497    5.1843 N.ar    1  LIG1       -0.1535
     15 N          -4.2926    8.1547    3.6280 N.ar    1  LIG1       -0.3597
     16 N          -4.6635    9.2635    4.2716 N.ar    1  LIG1       -0.0878
     17 C           5.9778    7.5037    1.5455 C.3     1  LIG1       -0.0201
     18 C           5.9542    7.1183    3.0135 C.ar    1  LIG1       -0.0266
     19 C           5.6880    9.0002    1.3728 C.3     1  LIG1       -0.0586
     20 C           7.2722    7.1520    0.8040 C.3     1  LIG1       -0.0586
     21 C           5.7405    6.5162    5.6811 C.ar    1  LIG1        0.1969
     22 C           7.0838    6.7022    3.7294 C.ar    1  LIG1       -0.0535
     23 C           4.7497    7.1842    3.7212 C.ar    1  LIG1        0.0332
     24 C           6.9838    6.3957    5.0847 C.ar    1  LIG1       -0.0160
     25 C           3.3195    5.0015    6.8666 C.ar    1  LIG1        0.1882
     26 C           3.1279    3.9848    5.9585 C.ar    1  LIG1        0.2307
     27 C           1.8693    3.9684    5.4030 C.ar    1  LIG1        0.2641
     28 C           1.3069    5.9481    6.4064 C.ar    1  LIG1        0.1659
     29 C           0.3830    7.0878    6.5371 C.ar    1  LIG1        0.0227
     30 C           4.7566    2.8957    4.6230 C.ar    1  LIG1        0.1702
     31 C          -0.7755    7.1864    5.7484 C.ar    1  LIG1       -0.0252
     32 C           0.6342    8.1356    7.4336 C.ar    1  LIG1       -0.0328
     33 C           0.1169    2.6786    4.4999 C.3     1  LIG1        0.1143
     34 C           5.8569    2.0214    4.6185 C.ar    1  LIG1        0.1621
     35 C          -1.6171    8.2897    5.8772 C.ar    1  LIG1        0.0708
     36 C           4.4224    3.5564    3.4323 C.ar    1  LIG1       -0.0157
     37 C          -0.2543    9.1943    7.5086 C.ar    1  LIG1        0.0289
     38 C          -0.1335    1.1884    4.2934 C.3     1  LIG1        0.0783
     39 C           6.5556    1.7689    3.4330 C.ar    1  LIG1       -0.0163
     40 C           5.1395    3.3175    2.2553 C.ar    1  LIG1       -0.0581
     41 C           6.2000    2.4176    2.2530 C.ar    1  LIG1       -0.0581
     42 C          -2.8131    8.4206    5.0425 C.ar    1  LIG1        0.0207
     43 C           6.5308    2.1153    6.8623 C.3     1  LIG1        0.0790
     44 H          -1.6304   -0.0302    4.0860 H       1  LIG1        0.2095
     45 H           4.0787    5.2526    8.6384 H       1  LIG1        0.1754
     46 H          -4.8424    7.7769    2.8615 H       1  LIG1        0.1651
     47 H           5.1732    6.9394    1.0543 H       1  LIG1        0.0344
     48 H           6.4361    9.6126    1.8887 H       1  LIG1        0.0235
     49 H           4.7053    9.2699    1.7747 H       1  LIG1        0.0235
     50 H           5.6933    9.2782    0.3134 H       1  LIG1        0.0235
     51 H           8.1264    7.7214    1.1881 H       1  LIG1        0.0235
     52 H           7.1787    7.3817   -0.2632 H       1  LIG1        0.0235
     53 H           7.5039    6.0849    0.8928 H       1  LIG1        0.0235
     54 H           8.0591    6.6252    3.2565 H       1  LIG1        0.0622
     55 H           3.8275    7.4930    3.2318 H       1  LIG1        0.0833
     56 H           7.8607    6.1000    5.6511 H       1  LIG1        0.0653
     57 H          -1.0156    6.4086    5.0270 H       1  LIG1        0.0646
     58 H           1.5195    8.1382    8.0649 H       1  LIG1        0.0640
     59 H          -0.2482    3.2482    3.6373 H       1  LIG1        0.0720
     60 H          -0.4466    2.9983    5.3863 H       1  LIG1        0.0720
     61 H           3.5896    4.2490    3.3732 H       1  LIG1        0.0655
     62 H          -0.0831   10.0198    8.1944 H       1  LIG1        0.0830
     63 H           0.3985    0.8247    3.4084 H       1  LIG1        0.0591
     64 H           0.2361    0.6240    5.1570 H       1  LIG1        0.0591
     65 H           7.3822    1.0630    3.4347 H       1  LIG1        0.0655
     66 H           4.8535    3.8222    1.3356 H       1  LIG1        0.0619
     67 H           6.7447    2.2151    1.3344 H       1  LIG1        0.0619
     68 H           7.3691    1.6742    7.4099 H       1  LIG1        0.0660
     69 H           5.6567    2.0914    7.5194 H       1  LIG1        0.0660
     70 H           6.8023    3.1470    6.6126 H       1  LIG1        0.0660
@<TRIPOS>BOND
     1     1    21    1
     2     1     8    1
     3     1     4    2
     4     1     3    2
     5     2    26    1
     6     2    30    1
     7     5    27    1
     8     5    33    1
     9     6    34    1
    10     6    43    1
    11     7    38    1
    12     8    25    1
    13     9    23   ar
    14     9    21   ar
    15    10    25   ar
    16    10    28   ar
    17    11    27   ar
    18    11    28   ar
    19    12    37   ar
    20    12    35   ar
    21    13    15   ar
    22    13    42   ar
    23    14    42   ar
    24    14    16   ar
    25    15    16   ar
    26    17    18    1
    27    17    20    1
    28    17    19    1
    29    18    23   ar
    30    18    22   ar
    31    21    24   ar
    32    22    24   ar
    33    25    26   ar
    34    26    27   ar
    35    28    29    1
    36    29    31   ar
    37    29    32   ar
    38    30    36   ar
    39    30    34   ar
    40    31    35   ar
    41    32    37   ar
    42    33    38    1
    43    34    39   ar
    44    35    42    1
    45    36    40   ar
    46    39    41   ar
    47    40    41   ar
    48     7    44    1
    49     8    45    1
    50    15    46    1
    51    17    47    1
    52    19    48    1
    53    19    49    1
    54    19    50    1
    55    20    51    1
    56    20    52    1
    57    20    53    1
    58    22    54    1
    59    23    55    1
    60    24    56    1
    61    31    57    1
    62    32    58    1
    63    33    59    1
    64    33    60    1
    65    36    61    1
    66    37    62    1
    67    38    63    1
    68    38    64    1
    69    39    65    1
    70    40    66    1
    71    41    67    1
    72    43    68    1
    73    43    69    1
    74    43    70    1
@<TRIPOS>MOLECULE
9939443
 70 74 0 0 0
SMALL
GASTEIGER

@<TRIPOS>ATOM
      1 S           5.7745    6.1397    7.2407 S.O2    1  LIG1        0.0908
      2 O           4.4187    3.3253    5.7880 O.3     1  LIG1       -0.4435
      3 O           6.4158    5.2994    6.2498 O.2     1  LIG1       -0.1484
      4 O           6.5211    6.5843    8.4008 O.2     1  LIG1       -0.1484
      5 O           1.8731    3.1343    4.2735 O.3     1  LIG1       -0.4715
      6 O           5.9946    0.9975    5.4773 O.3     1  LIG1       -0.4914
      7 O           1.7449    1.7884    7.1368 O.3     1  LIG1       -0.3917
      8 N           4.3997    5.3508    7.8277 N.pl3   1  LIG1       -0.1950
      9 N           4.6472    8.5560    7.2023 N.ar    1  LIG1       -0.2351
     10 N           2.3482    5.9850    7.1368 N.ar    1  LIG1       -0.2073
     11 N           1.1451    4.9580    5.3743 N.ar    1  LIG1       -0.1899
     12 N          -1.7389    8.9034    6.7273 N.ar    1  LIG1       -0.2552
     13 N          -0.5248    9.0488   10.1880 N.ar    1  LIG1       -0.5621
     14 N          -1.9761   10.4154    9.1164 N.ar    1  LIG1       -0.1535
     15 N          -1.0707    9.9930   10.9687 N.ar    1  LIG1       -0.3597
     16 N          -1.9262   10.8284   10.3752 N.ar    1  LIG1       -0.0878
     17 C           3.7724   11.1560    4.5460 C.3     1  LIG1       -0.0201
     18 C           4.2291    9.8655    5.1951 C.ar    1  LIG1       -0.0266
     19 C           2.2909   11.4301    4.8091 C.3     1  LIG1       -0.0586
     20 C           4.6364   12.3417    4.9845 C.3     1  LIG1       -0.0586
     21 C           5.1382    7.5847    6.3892 C.ar    1  LIG1        0.1969
     22 C           4.7117    8.8138    4.4053 C.ar    1  LIG1       -0.0535
     23 C           4.2167    9.6765    6.5798 C.ar    1  LIG1        0.0332
     24 C           5.1863    7.6537    5.0061 C.ar    1  LIG1       -0.0160
     25 C           3.3449    5.1178    6.9068 C.ar    1  LIG1        0.1882
     26 C           3.3487    4.1555    5.9150 C.ar    1  LIG1        0.2307
     27 C           2.1513    4.0694    5.2286 C.ar    1  LIG1        0.2641
     28 C           1.2864    5.8893    6.3278 C.ar    1  LIG1        0.1659
     29 C           0.2339    6.9054    6.4710 C.ar    1  LIG1        0.0227
     30 C           4.9661    3.0439    4.5539 C.ar    1  LIG1        0.1702
     31 C           0.0692    7.6216    7.6678 C.ar    1  LIG1       -0.0252
     32 C          -0.6302    7.2159    5.4134 C.ar    1  LIG1       -0.0328
     33 C           1.8789    1.7677    4.7123 C.3     1  LIG1        0.1143
     34 C           5.7374    1.8729    4.4521 C.ar    1  LIG1        0.1621
     35 C          -0.9195    8.5981    7.7645 C.ar    1  LIG1        0.0708
     36 C           4.7922    3.8460    3.4175 C.ar    1  LIG1       -0.0157
     37 C          -1.5794    8.2086    5.5838 C.ar    1  LIG1        0.0289
     38 C           1.0260    1.4676    5.9464 C.3     1  LIG1        0.0783
     39 C           6.2341    1.4708    3.2085 C.ar    1  LIG1       -0.0163
     40 C           5.3096    3.4457    2.1825 C.ar    1  LIG1       -0.0581
     41 C           6.0200    2.2532    2.0754 C.ar    1  LIG1       -0.0581
     42 C          -1.1246    9.3356    9.0127 C.ar    1  LIG1        0.0207
     43 C           6.3976    1.6144    6.6991 C.3     1  LIG1        0.0790
     44 H           1.2431    1.4185    7.8837 H       1  LIG1        0.2095
     45 H           4.0569    5.8743    8.6340 H       1  LIG1        0.1754
     46 H          -0.8501   10.0726   11.9575 H       1  LIG1        0.1651
     47 H           3.8932   11.0588    3.4586 H       1  LIG1        0.0344
     48 H           2.0872   11.5925    5.8729 H       1  LIG1        0.0235
     49 H           1.6723   10.5901    4.4742 H       1  LIG1        0.0235
     50 H           1.9642   12.3242    4.2668 H       1  LIG1        0.0235
     51 H           4.5186   12.5618    6.0511 H       1  LIG1        0.0235
     52 H           4.3632   13.2440    4.4263 H       1  LIG1        0.0235
     53 H           5.6983   12.1435    4.7997 H       1  LIG1        0.0235
     54 H           4.7394    8.9016    3.3213 H       1  LIG1        0.0622
     55 H           3.8603   10.4550    7.2511 H       1  LIG1        0.0833
     56 H           5.5896    6.8425    4.4100 H       1  LIG1        0.0653
     57 H           0.7099    7.4146    8.5222 H       1  LIG1        0.0646
     58 H          -0.5573    6.7004    4.4596 H       1  LIG1        0.0640
     59 H           2.9012    1.4101    4.8487 H       1  LIG1        0.0720
     60 H           1.4610    1.2026    3.8711 H       1  LIG1        0.0720
     61 H           4.2354    4.7760    3.4599 H       1  LIG1        0.0655
     62 H          -2.2559    8.4806    4.7782 H       1  LIG1        0.0830
     63 H           0.0923    2.0360    5.9410 H       1  LIG1        0.0591
     64 H           0.8034    0.3963    5.9804 H       1  LIG1        0.0591
     65 H           6.7960    0.5437    3.1284 H       1  LIG1        0.0655
     66 H           5.1457    4.0594    1.3003 H       1  LIG1        0.0619
     67 H           6.4108    1.9332    1.1132 H       1  LIG1        0.0619
     68 H           7.0565    0.9147    7.2226 H       1  LIG1        0.0660
     69 H           5.5282    1.7851    7.3415 H       1  LIG1        0.0660
     70 H           6.9598    2.5414    6.5416 H       1  LIG1        0.0660
@<TRIPOS>BOND
     1     1    21    1
     2     1     8    1
     3     1     4    2
     4     1     3    2
     5     2    26    1
     6     2    30    1
     7     5    27    1
     8     5    33    1
     9     6    34    1
    10     6    43    1
    11     7    38    1
    12     8    25    1
    13     9    23   ar
    14     9    21   ar
    15    10    25   ar
    16    10    28   ar
    17    11    27   ar
    18    11    28   ar
    19    12    37   ar
    20    12    35   ar
    21    13    15   ar
    22    13    42   ar
    23    14    42   ar
    24    14    16   ar
    25    15    16   ar
    26    17    18    1
    27    17    20    1
    28    17    19    1
    29    18    23   ar
    30    18    22   ar
    31    21    24   ar
    32    22    24   ar
    33    25    26   ar
    34    26    27   ar
    35    28    29    1
    36    29    31   ar
    37    29    32   ar
    38    30    36   ar
    39    30    34   ar
    40    31    35   ar
    41    32    37   ar
    42    33    38    1
    43    34    39   ar
    44    35    42    1
    45    36    40   ar
    46    39    41   ar
    47    40    41   ar
    48     7    44    1
    49     8    45    1
    50    15    46    1
    51    17    47    1
    52    19    48    1
    53    19    49    1
    54    19    50    1
    55    20    51    1
    56    20    52    1
    57    20    53    1
    58    22    54    1
    59    23    55    1
    60    24    56    1
    61    31    57    1
    62    32    58    1
    63    33    59    1
    64    33    60    1
    65    36    61    1
    66    37    62    1
    67    38    63    1
    68    38    64    1
    69    39    65    1
    70    40    66    1
    71    41    67    1
    72    43    68    1
    73    43    69    1
    74    43    70    1
@<TRIPOS>MOLECULE
9939443
 70 74 0 0 0
SMALL
GASTEIGER

@<TRIPOS>ATOM
      1 S           4.0706    3.9821    9.0892 S.O2    1  LIG1        0.0908
      2 O           4.2587    3.3913    5.7372 O.3     1  LIG1       -0.4435
      3 O           5.3286    3.2555    9.1136 O.2     1  LIG1       -0.1484
      4 O           2.8114    3.3089    8.8527 O.2     1  LIG1       -0.1484
      5 O           1.8394    3.3448    4.1901 O.3     1  LIG1       -0.4715
      6 O           5.5581    0.8568    5.2923 O.3     1  LIG1       -0.4914
      7 O          -1.2852    3.7439    2.2865 O.3     1  LIG1       -0.3917
      8 N           4.3233    5.1604    7.8754 N.pl3   1  LIG1       -0.1950
      9 N           3.7263    4.1038   11.6965 N.ar    1  LIG1       -0.2351
     10 N           2.3197    6.0898    7.1990 N.ar    1  LIG1       -0.2073
     11 N           1.0820    5.2189    5.3628 N.ar    1  LIG1       -0.1899
     12 N          -1.7461    9.0995    6.9202 N.ar    1  LIG1       -0.2552
     13 N          -0.4963    9.1386   10.3712 N.ar    1  LIG1       -0.5621
     14 N          -2.0277   10.4720    9.3713 N.ar    1  LIG1       -0.1535
     15 N          -1.0815   10.0205   11.1945 N.ar    1  LIG1       -0.3597
     16 N          -1.9801   10.8382   10.6443 N.ar    1  LIG1       -0.0878
     17 C           4.0809    6.6877   14.4790 C.3     1  LIG1       -0.0201
     18 C           4.0191    6.0561   13.1022 C.ar    1  LIG1       -0.0266
     19 C           2.7054    7.2109   14.8932 C.3     1  LIG1       -0.0586
     20 C           4.6467    5.7604   15.5616 C.3     1  LIG1       -0.0586
     21 C           3.9663    4.8979   10.6196 C.ar    1  LIG1        0.1969
     22 C           4.2295    6.8390   11.9560 C.ar    1  LIG1       -0.0535
     23 C           3.7457    4.7045   12.9038 C.ar    1  LIG1        0.0332
     24 C           4.2036    6.2586   10.6889 C.ar    1  LIG1       -0.0160
     25 C           3.2681    5.1841    6.9154 C.ar    1  LIG1        0.1882
     26 C           3.2232    4.2712    5.8757 C.ar    1  LIG1        0.2307
     27 C           2.0417    4.2918    5.1699 C.ar    1  LIG1        0.2641
     28 C           1.2572    6.0833    6.3795 C.ar    1  LIG1        0.1659
     29 C           0.2230    7.1115    6.5750 C.ar    1  LIG1        0.0227
     30 C           4.7605    3.0718    4.4949 C.ar    1  LIG1        0.1702
     31 C           0.0663    7.7768    7.8008 C.ar    1  LIG1       -0.0252
     32 C          -0.6478    7.4692    5.5354 C.ar    1  LIG1       -0.0328
     33 C           0.4715    3.1329    3.8338 C.3     1  LIG1        0.1143
     34 C           5.3793    1.8198    4.3331 C.ar    1  LIG1        0.1621
     35 C          -0.9220    8.7500    7.9401 C.ar    1  LIG1        0.0708
     36 C           4.7169    3.9558    3.4053 C.ar    1  LIG1       -0.0157
     37 C          -1.5955    8.4534    5.7496 C.ar    1  LIG1        0.0289
     38 C           0.0640    4.0089    2.6534 C.3     1  LIG1        0.0783
     39 C           5.8386    1.4338    3.0672 C.ar    1  LIG1       -0.0163
     40 C           5.1919    3.5631    2.1518 C.ar    1  LIG1       -0.0581
     41 C           5.7412    2.2966    1.9788 C.ar    1  LIG1       -0.0581
     42 C          -1.1306    9.4362    9.2170 C.ar    1  LIG1        0.0207
     43 C           5.8397    1.3152    6.6090 C.3     1  LIG1        0.0790
     44 H          -1.4884    4.3057    1.5196 H       1  LIG1        0.2095
     45 H           5.2224    4.9222    7.4535 H       1  LIG1        0.1754
     46 H          -0.8587   10.0682   12.1843 H       1  LIG1        0.1651
     47 H           4.7672    7.5441   14.4215 H       1  LIG1        0.0344
     48 H           1.9712    6.4005   14.9624 H       1  LIG1        0.0235
     49 H           2.3270    7.9422   14.1703 H       1  LIG1        0.0235
     50 H           2.7567    7.7046   15.8700 H       1  LIG1        0.0235
     51 H           3.9662    4.9318   15.7892 H       1  LIG1        0.0235
     52 H           4.8060    6.3127   16.4940 H       1  LIG1        0.0235
     53 H           5.6083    5.3352   15.2560 H       1  LIG1        0.0235
     54 H           4.4307    7.9048   12.0485 H       1  LIG1        0.0622
     55 H           3.5368    4.0333   13.7322 H       1  LIG1        0.0833
     56 H           4.3892    6.8576    9.8033 H       1  LIG1        0.0653
     57 H           0.7050    7.5270    8.6449 H       1  LIG1        0.0646
     58 H          -0.5882    6.9911    4.5617 H       1  LIG1        0.0640
     59 H          -0.2138    3.2413    4.6850 H       1  LIG1        0.0720
     60 H           0.3816    2.0818    3.5344 H       1  LIG1        0.0720
     61 H           4.2958    4.9510    3.5014 H       1  LIG1        0.0655
     62 H          -2.2789    8.7552    4.9607 H       1  LIG1        0.0830
     63 H           0.1577    5.0722    2.8931 H       1  LIG1        0.0591
     64 H           0.7120    3.8091    1.7937 H       1  LIG1        0.0591
     65 H           6.2846    0.4493    2.9375 H       1  LIG1        0.0655
     66 H           5.1226    4.2424    1.3040 H       1  LIG1        0.0619
     67 H           6.1008    1.9811    1.0032 H       1  LIG1        0.0619
     68 H           6.4227    0.5400    7.1172 H       1  LIG1        0.0660
     69 H           4.9078    1.4428    7.1625 H       1  LIG1        0.0660
     70 H           6.4430    2.2315    6.6152 H       1  LIG1        0.0660
@<TRIPOS>BOND
     1     1    21    1
     2     1     8    1
     3     1     4    2
     4     1     3    2
     5     2    26    1
     6     2    30    1
     7     5    27    1
     8     5    33    1
     9     6    34    1
    10     6    43    1
    11     7    38    1
    12     8    25    1
    13     9    23   ar
    14     9    21   ar
    15    10    25   ar
    16    10    28   ar
    17    11    27   ar
    18    11    28   ar
    19    12    37   ar
    20    12    35   ar
    21    13    15   ar
    22    13    42   ar
    23    14    42   ar
    24    14    16   ar
    25    15    16   ar
    26    17    18    1
    27    17    20    1
    28    17    19    1
    29    18    23   ar
    30    18    22   ar
    31    21    24   ar
    32    22    24   ar
    33    25    26   ar
    34    26    27   ar
    35    28    29    1
    36    29    31   ar
    37    29    32   ar
    38    30    36   ar
    39    30    34   ar
    40    31    35   ar
    41    32    37   ar
    42    33    38    1
    43    34    39   ar
    44    35    42    1
    45    36    40   ar
    46    39    41   ar
    47    40    41   ar
    48     7    44    1
    49     8    45    1
    50    15    46    1
    51    17    47    1
    52    19    48    1
    53    19    49    1
    54    19    50    1
    55    20    51    1
    56    20    52    1
    57    20    53    1
    58    22    54    1
    59    23    55    1
    60    24    56    1
    61    31    57    1
    62    32    58    1
    63    33    59    1
    64    33    60    1
    65    36    61    1
    66    37    62    1
    67    38    63    1
    68    38    64    1
    69    39    65    1
    70    40    66    1
    71    41    67    1
    72    43    68    1
    73    43    69    1
    74    43    70    1
@<TRIPOS>MOLECULE
9939443
 70 74 0 0 0
SMALL
GASTEIGER

@<TRIPOS>ATOM
      1 S           5.7038    6.2904    7.3064 S.O2    1  LIG1        0.0908
      2 O           4.4999    3.4350    5.7411 O.3     1  LIG1       -0.4435
      3 O           5.1037    7.4848    6.7390 O.2     1  LIG1       -0.1484
      4 O           6.6650    5.5057    6.5613 O.2     1  LIG1       -0.1484
      5 O           2.0563    3.3882    4.0987 O.3     1  LIG1       -0.4715
      6 O           6.0803    1.1804    5.5143 O.3     1  LIG1       -0.4914
      7 O           2.4538    0.9069    2.5852 O.3     1  LIG1       -0.3917
      8 N           4.4632    5.2751    7.8538 N.pl3   1  LIG1       -0.1950
      9 N           6.4603    5.8299    9.8152 N.ar    1  LIG1       -0.2351
     10 N           2.3928    5.9808    7.2227 N.ar    1  LIG1       -0.2073
     11 N           1.2313    5.1016    5.3506 N.ar    1  LIG1       -0.1899
     12 N          -1.5194    9.1337    6.7569 N.ar    1  LIG1       -0.2552
     13 N          -3.7532    9.2667    4.9632 N.ar    1  LIG1       -0.5621
     14 N          -3.1970    7.2762    4.0453 N.ar    1  LIG1       -0.1535
     15 N          -4.5898    8.8543    4.0065 N.ar    1  LIG1       -0.3597
     16 N          -4.3035    7.6791    3.4367 N.ar    1  LIG1       -0.0878
     17 C           8.3025    7.6590   12.5811 C.3     1  LIG1       -0.0201
     18 C           7.6188    7.4221   11.2479 C.ar    1  LIG1       -0.0266
     19 C           9.7310    7.1074   12.5425 C.3     1  LIG1       -0.0586
     20 C           8.3170    9.1195   13.0422 C.3     1  LIG1       -0.0586
     21 C           6.4846    6.7860    8.8460 C.ar    1  LIG1        0.1969
     22 C           7.5573    8.3823   10.2257 C.ar    1  LIG1       -0.0535
     23 C           7.0532    6.1722   10.9792 C.ar    1  LIG1        0.0332
     24 C           6.9781    8.0658    9.0010 C.ar    1  LIG1       -0.0160
     25 C           3.3927    5.1336    6.9408 C.ar    1  LIG1        0.1882
     26 C           3.4285    4.2626    5.8719 C.ar    1  LIG1        0.2307
     27 C           2.2557    4.2441    5.1484 C.ar    1  LIG1        0.2641
     28 C           1.3614    5.9712    6.3652 C.ar    1  LIG1        0.1659
     29 C           0.3500    7.0333    6.5146 C.ar    1  LIG1        0.0227
     30 C           5.0610    3.1625    4.5158 C.ar    1  LIG1        0.1702
     31 C          -0.7885    7.0964    5.6944 C.ar    1  LIG1       -0.0252
     32 C           0.5127    8.0591    7.4588 C.ar    1  LIG1       -0.0328
     33 C           1.6994    2.0805    4.5678 C.3     1  LIG1        0.1143
     34 C           5.8373    1.9952    4.4348 C.ar    1  LIG1        0.1621
     35 C          -1.6910    8.1503    5.8357 C.ar    1  LIG1        0.0708
     36 C           4.9397    3.9729    3.3831 C.ar    1  LIG1       -0.0157
     37 C          -0.4290    9.0681    7.5407 C.ar    1  LIG1        0.0289
     38 C           1.3041    1.2287    3.3627 C.3     1  LIG1        0.0783
     39 C           6.3726    1.5801    3.2150 C.ar    1  LIG1       -0.0163
     40 C           5.4961    3.5674    2.1664 C.ar    1  LIG1       -0.0581
     41 C           6.1975    2.3650    2.0773 C.ar    1  LIG1       -0.0581
     42 C          -2.8698    8.2474    4.9716 C.ar    1  LIG1        0.0207
     43 C           6.8397    1.8614    6.5181 C.3     1  LIG1        0.0790
     44 H           2.1407    0.5488    1.7374 H       1  LIG1        0.2095
     45 H           4.1521    5.5583    8.7814 H       1  LIG1        0.1754
     46 H          -5.3990    9.4014    3.7247 H       1  LIG1        0.1651
     47 H           7.7419    7.1004   13.3435 H       1  LIG1        0.0344
     48 H          10.3351    7.6148   11.7816 H       1  LIG1        0.0235
     49 H           9.7374    6.0365   12.3099 H       1  LIG1        0.0235
     50 H          10.2258    7.2385   13.5109 H       1  LIG1        0.0235
     51 H           8.9477    9.7453   12.4014 H       1  LIG1        0.0235
     52 H           8.7142    9.1939   14.0608 H       1  LIG1        0.0235
     53 H           7.3069    9.5430   13.0460 H       1  LIG1        0.0235
     54 H           7.9706    9.3780   10.3638 H       1  LIG1        0.0622
     55 H           7.0769    5.3781   11.7240 H       1  LIG1        0.0833
     56 H           6.9234    8.7923    8.2004 H       1  LIG1        0.0653
     57 H          -0.9572    6.3339    4.9366 H       1  LIG1        0.0646
     58 H           1.3776    8.0875    8.1162 H       1  LIG1        0.0640
     59 H           0.8460    2.1506    5.2529 H       1  LIG1        0.0720
     60 H           2.5502    1.6194    5.0819 H       1  LIG1        0.0720
     61 H           4.4005    4.9142    3.4145 H       1  LIG1        0.0655
     62 H          -0.3198    9.8800    8.2557 H       1  LIG1        0.0830
     63 H           0.8529    0.2890    3.6938 H       1  LIG1        0.0591
     64 H           0.5992    1.7687    2.7232 H       1  LIG1        0.0591
     65 H           6.9319    0.6509    3.1572 H       1  LIG1        0.0655
     66 H           5.3690    4.1861    1.2815 H       1  LIG1        0.0619
     67 H           6.6125    2.0437    1.1270 H       1  LIG1        0.0619
     68 H           7.4555    1.1163    7.0310 H       1  LIG1        0.0660
     69 H           6.1713    2.3076    7.2604 H       1  LIG1        0.0660
     70 H           7.5122    2.6209    6.1020 H       1  LIG1        0.0660
@<TRIPOS>BOND
     1     1    21    1
     2     1     8    1
     3     1     4    2
     4     1     3    2
     5     2    26    1
     6     2    30    1
     7     5    27    1
     8     5    33    1
     9     6    34    1
    10     6    43    1
    11     7    38    1
    12     8    25    1
    13     9    23   ar
    14     9    21   ar
    15    10    25   ar
    16    10    28   ar
    17    11    27   ar
    18    11    28   ar
    19    12    37   ar
    20    12    35   ar
    21    13    15   ar
    22    13    42   ar
    23    14    42   ar
    24    14    16   ar
    25    15    16   ar
    26    17    18    1
    27    17    20    1
    28    17    19    1
    29    18    23   ar
    30    18    22   ar
    31    21    24   ar
    32    22    24   ar
    33    25    26   ar
    34    26    27   ar
    35    28    29    1
    36    29    31   ar
    37    29    32   ar
    38    30    36   ar
    39    30    34   ar
    40    31    35   ar
    41    32    37   ar
    42    33    38    1
    43    34    39   ar
    44    35    42    1
    45    36    40   ar
    46    39    41   ar
    47    40    41   ar
    48     7    44    1
    49     8    45    1
    50    15    46    1
    51    17    47    1
    52    19    48    1
    53    19    49    1
    54    19    50    1
    55    20    51    1
    56    20    52    1
    57    20    53    1
    58    22    54    1
    59    23    55    1
    60    24    56    1
    61    31    57    1
    62    32    58    1
    63    33    59    1
    64    33    60    1
    65    36    61    1
    66    37    62    1
    67    38    63    1
    68    38    64    1
    69    39    65    1
    70    40    66    1
    71    41    67    1
    72    43    68    1
    73    43    69    1
    74    43    70    1
@<TRIPOS>MOLECULE
9939443
 70 74 0 0 0
SMALL
GASTEIGER

@<TRIPOS>ATOM
      1 S           5.6015    6.2237    7.3504 S.O2    1  LIG1        0.0908
      2 O           4.2719    3.4024    5.8102 O.3     1  LIG1       -0.4435
      3 O           5.0402    7.4306    6.7701 O.2     1  LIG1       -0.1484
      4 O           6.5297    5.4039    6.6040 O.2     1  LIG1       -0.1484
      5 O           1.9049    3.3965    4.1919 O.3     1  LIG1       -0.4715
      6 O           5.5821    0.9288    5.5780 O.3     1  LIG1       -0.4914
      7 O          -1.0334    2.9269    4.7838 O.3     1  LIG1       -0.3917
      8 N           4.3262    5.2552    7.9114 N.pl3   1  LIG1       -0.1950
      9 N           6.4447    5.7399    9.8253 N.ar    1  LIG1       -0.2351
     10 N           2.2851    6.0474    7.2875 N.ar    1  LIG1       -0.2073
     11 N           1.1287    5.2718    5.3644 N.ar    1  LIG1       -0.1899
     12 N          -1.4593    9.3811    6.8110 N.ar    1  LIG1       -0.2552
     13 N          -2.8012   10.3633    4.4554 N.ar    1  LIG1       -0.5621
     14 N          -2.1887    8.5210    3.2957 N.ar    1  LIG1       -0.1535
     15 N          -3.2588   10.3303    3.1995 N.ar    1  LIG1       -0.3597
     16 N          -2.9253    9.2567    2.4761 N.ar    1  LIG1       -0.0878
     17 C           8.3123    7.6642   12.5583 C.3     1  LIG1       -0.0201
     18 C           7.6038    7.3248   11.2595 C.ar    1  LIG1       -0.0266
     19 C           7.3803    8.4320   13.4990 C.3     1  LIG1       -0.0586
     20 C           8.9182    6.4609   13.2899 C.3     1  LIG1       -0.0586
     21 C           6.4056    6.7125    8.8768 C.ar    1  LIG1        0.1969
     22 C           7.4653    8.3106   10.2683 C.ar    1  LIG1       -0.0535
     23 C           7.0621    6.0689   10.9829 C.ar    1  LIG1        0.0332
     24 C           6.8585    8.0077    9.0526 C.ar    1  LIG1       -0.0160
     25 C           3.2457    5.1583    7.0005 C.ar    1  LIG1        0.1882
     26 C           3.2448    4.2914    5.9244 C.ar    1  LIG1        0.2307
     27 C           2.0918    4.3496    5.1689 C.ar    1  LIG1        0.2641
     28 C           1.2703    6.0975    6.4129 C.ar    1  LIG1        0.1659
     29 C           0.2983    7.1904    6.5666 C.ar    1  LIG1        0.0227
     30 C           4.7850    3.0342    4.5883 C.ar    1  LIG1        0.1702
     31 C          -0.5025    7.6074    5.4915 C.ar    1  LIG1       -0.0252
     32 C           0.1744    7.8961    7.7706 C.ar    1  LIG1       -0.0328
     33 C           0.7926    3.5774    3.3098 C.3     1  LIG1        0.1143
     34 C           5.4142    1.7809    4.5144 C.ar    1  LIG1        0.1621
     35 C          -1.3473    8.7045    5.6387 C.ar    1  LIG1        0.0708
     36 C           4.7528    3.8456    3.4475 C.ar    1  LIG1       -0.0157
     37 C          -0.7059    8.9607    7.8448 C.ar    1  LIG1        0.0289
     38 C          -0.2986    2.5554    3.6214 C.3     1  LIG1        0.0783
     39 C           5.8773    1.2984    3.2872 C.ar    1  LIG1       -0.0163
     40 C           5.2349    3.3654    2.2258 C.ar    1  LIG1       -0.0581
     41 C           5.7816    2.0866    2.1419 C.ar    1  LIG1       -0.0581
     42 C          -2.1192    9.2007    4.4967 C.ar    1  LIG1        0.0207
     43 C           6.1759    1.5551    6.7174 C.3     1  LIG1        0.0790
     44 H          -1.6722    2.2150    4.9564 H       1  LIG1        0.2095
     45 H           4.0237    5.5652    8.8322 H       1  LIG1        0.1754
     46 H          -3.8226   11.0810    2.8115 H       1  LIG1        0.1651
     47 H           9.1552    8.3220   12.3044 H       1  LIG1        0.0344
     48 H           6.5071    7.8307   13.7754 H       1  LIG1        0.0235
     49 H           7.0157    9.3541   13.0330 H       1  LIG1        0.0235
     50 H           7.9040    8.7126   14.4194 H       1  LIG1        0.0235
     51 H           8.1460    5.7905   13.6829 H       1  LIG1        0.0235
     52 H           9.5232    6.7951   14.1402 H       1  LIG1        0.0235
     53 H           9.5691    5.8809   12.6266 H       1  LIG1        0.0235
     54 H           7.8420    9.3177   10.4381 H       1  LIG1        0.0622
     55 H           7.1105    5.2541   11.7003 H       1  LIG1        0.0833
     56 H           6.7525    8.7573    8.2756 H       1  LIG1        0.0653
     57 H          -0.4343    7.0968    4.5334 H       1  LIG1        0.0646
     58 H           0.7656    7.6289    8.6416 H       1  LIG1        0.0640
     59 H           1.1766    3.3736    2.3037 H       1  LIG1        0.0720
     60 H           0.3984    4.5992    3.2925 H       1  LIG1        0.0720
     61 H           4.3410    4.8496    3.4822 H       1  LIG1        0.0655
     62 H          -0.8214    9.5285    8.7638 H       1  LIG1        0.0830
     63 H          -1.0041    2.4980    2.7867 H       1  LIG1        0.0591
     64 H           0.1362    1.5661    3.7965 H       1  LIG1        0.0591
     65 H           6.3278    0.3111    3.2317 H       1  LIG1        0.0655
     66 H           5.1782    3.9901    1.3377 H       1  LIG1        0.0619
     67 H           6.1483    1.7093    1.1910 H       1  LIG1        0.0619
     68 H           6.7989    0.8091    7.2204 H       1  LIG1        0.0660
     69 H           5.3977    1.8637    7.4219 H       1  LIG1        0.0660
     70 H           6.8203    2.4023    6.4552 H       1  LIG1        0.0660
@<TRIPOS>BOND
     1     1    21    1
     2     1     8    1
     3     1     4    2
     4     1     3    2
     5     2    26    1
     6     2    30    1
     7     5    27    1
     8     5    33    1
     9     6    34    1
    10     6    43    1
    11     7    38    1
    12     8    25    1
    13     9    23   ar
    14     9    21   ar
    15    10    25   ar
    16    10    28   ar
    17    11    27   ar
    18    11    28   ar
    19    12    37   ar
    20    12    35   ar
    21    13    15   ar
    22    13    42   ar
    23    14    42   ar
    24    14    16   ar
    25    15    16   ar
    26    17    18    1
    27    17    20    1
    28    17    19    1
    29    18    23   ar
    30    18    22   ar
    31    21    24   ar
    32    22    24   ar
    33    25    26   ar
    34    26    27   ar
    35    28    29    1
    36    29    31   ar
    37    29    32   ar
    38    30    36   ar
    39    30    34   ar
    40    31    35   ar
    41    32    37   ar
    42    33    38    1
    43    34    39   ar
    44    35    42    1
    45    36    40   ar
    46    39    41   ar
    47    40    41   ar
    48     7    44    1
    49     8    45    1
    50    15    46    1
    51    17    47    1
    52    19    48    1
    53    19    49    1
    54    19    50    1
    55    20    51    1
    56    20    52    1
    57    20    53    1
    58    22    54    1
    59    23    55    1
    60    24    56    1
    61    31    57    1
    62    32    58    1
    63    33    59    1
    64    33    60    1
    65    36    61    1
    66    37    62    1
    67    38    63    1
    68    38    64    1
    69    39    65    1
    70    40    66    1
    71    41    67    1
    72    43    68    1
    73    43    69    1
    74    43    70    1
@<TRIPOS>MOLECULE
9939443
 70 74 0 0 0
SMALL
GASTEIGER

@<TRIPOS>ATOM
      1 S           5.6440    6.2154    7.3937 S.O2    1  LIG1        0.0908
      2 O           4.3000    3.1928    5.7842 O.3     1  LIG1       -0.4435
      3 O           5.3196    6.7705    6.0953 O.2     1  LIG1       -0.1484
      4 O           6.8985    5.5243    7.6291 O.2     1  LIG1       -0.1484
      5 O           1.6690    3.1631    4.3229 O.3     1  LIG1       -0.4715
      6 O           6.1465    1.1943    5.5373 O.3     1  LIG1       -0.4914
      7 O           1.4899   -0.1518    5.9827 O.3     1  LIG1       -0.3917
      8 N           4.4843    5.0448    7.7972 N.pl3   1  LIG1       -0.1950
      9 N           6.4484    8.4230    8.6019 N.ar    1  LIG1       -0.2351
     10 N           2.4399    5.9515    7.2087 N.ar    1  LIG1       -0.2073
     11 N           1.1095    4.9862    5.4985 N.ar    1  LIG1       -0.1899
     12 N          -1.6140    8.9961    6.9530 N.ar    1  LIG1       -0.2552
     13 N          -1.1589   11.1139    8.8426 N.ar    1  LIG1       -0.5621
     14 N           0.7668   10.1473    9.5293 N.ar    1  LIG1       -0.1535
     15 N          -0.5359   11.7750    9.8237 N.ar    1  LIG1       -0.3597
     16 N           0.6059   11.2365   10.2668 N.ar    1  LIG1       -0.0878
     17 C           5.5287   10.5332   11.6159 C.3     1  LIG1       -0.0201
     18 C           5.4454    9.4380   10.5711 C.ar    1  LIG1       -0.0266
     19 C           4.1650   11.0584   12.0745 C.3     1  LIG1       -0.0586
     20 C           6.3496   10.0604   12.8184 C.3     1  LIG1       -0.0586
     21 C           5.4699    7.4811    8.6477 C.ar    1  LIG1        0.1969
     22 C           4.4652    8.4383   10.5809 C.ar    1  LIG1       -0.0535
     23 C           6.4068    9.3735    9.5608 C.ar    1  LIG1        0.0332
     24 C           4.4693    7.4417    9.6054 C.ar    1  LIG1       -0.0160
     25 C           3.3541    5.0107    6.9418 C.ar    1  LIG1        0.1882
     26 C           3.2663    4.0642    5.9336 C.ar    1  LIG1        0.2307
     27 C           2.0563    4.0533    5.2779 C.ar    1  LIG1        0.2641
     28 C           1.3469    5.9258    6.4328 C.ar    1  LIG1        0.1659
     29 C           0.3318    6.9781    6.6184 C.ar    1  LIG1        0.0227
     30 C           4.9414    3.0692    4.5694 C.ar    1  LIG1        0.1702
     31 C           0.5040    8.0148    7.5518 C.ar    1  LIG1       -0.0252
     32 C          -0.8468    6.9956    5.8585 C.ar    1  LIG1       -0.0328
     33 C           1.8606    1.7687    4.5752 C.3     1  LIG1        0.1143
     34 C           5.8443    1.9990    4.4673 C.ar    1  LIG1        0.1621
     35 C          -0.4762    8.9971    7.6930 C.ar    1  LIG1        0.0708
     36 C           4.7298    3.8817    3.4521 C.ar    1  LIG1       -0.0157
     37 C          -1.7721    8.0051    6.0565 C.ar    1  LIG1        0.0289
     38 C           1.3430    1.2617    5.9205 C.3     1  LIG1        0.0783
     39 C           6.4281    1.6680    3.2451 C.ar    1  LIG1       -0.0163
     40 C           5.3351    3.5643    2.2313 C.ar    1  LIG1       -0.0581
     41 C           6.1666    2.4495    2.1228 C.ar    1  LIG1       -0.0581
     42 C          -0.3101   10.0813    8.6656 C.ar    1  LIG1        0.0207
     43 C           6.9707    1.8919    6.4757 C.3     1  LIG1        0.0790
     44 H           1.2148   -0.4354    6.8714 H       1  LIG1        0.2095
     45 H           4.9795    4.1542    7.8723 H       1  LIG1        0.1754
     46 H          -0.9084   12.6366   10.2132 H       1  LIG1        0.1651
     47 H           6.0522   11.3880   11.1663 H       1  LIG1        0.0344
     48 H           3.6043   10.3087   12.6427 H       1  LIG1        0.0235
     49 H           3.5541   11.3643   11.2187 H       1  LIG1        0.0235
     50 H           4.2914   11.9315   12.7245 H       1  LIG1        0.0235
     51 H           5.8773    9.2067   13.3176 H       1  LIG1        0.0235
     52 H           6.4579   10.8644   13.5547 H       1  LIG1        0.0235
     53 H           7.3557    9.7516   12.5133 H       1  LIG1        0.0235
     54 H           3.6939    8.4189   11.3472 H       1  LIG1        0.0622
     55 H           7.2056   10.1093    9.4978 H       1  LIG1        0.0833
     56 H           3.7128    6.6663    9.6186 H       1  LIG1        0.0653
     57 H           1.4036    8.0584    8.1601 H       1  LIG1        0.0646
     58 H          -1.0466    6.2321    5.1109 H       1  LIG1        0.0640
     59 H           2.8989    1.4703    4.4136 H       1  LIG1        0.0720
     60 H           1.3101    1.2432    3.7845 H       1  LIG1        0.0720
     61 H           4.0843    4.7543    3.4874 H       1  LIG1        0.0655
     62 H          -2.6922    8.0434    5.4789 H       1  LIG1        0.0830
     63 H           1.9051    1.6968    6.7514 H       1  LIG1        0.0591
     64 H           0.2883    1.5200    6.0520 H       1  LIG1        0.0591
     65 H           7.0846    0.8059    3.1715 H       1  LIG1        0.0655
     66 H           5.1441    4.1825    1.3573 H       1  LIG1        0.0619
     67 H           6.6167    2.1949    1.1663 H       1  LIG1        0.0619
     68 H           7.6364    1.1620    6.9456 H       1  LIG1        0.0660
     69 H           6.3462    2.3317    7.2589 H       1  LIG1        0.0660
     70 H           7.5916    2.6672    6.0107 H       1  LIG1        0.0660
@<TRIPOS>BOND
     1     1    21    1
     2     1     8    1
     3     1     4    2
     4     1     3    2
     5     2    26    1
     6     2    30    1
     7     5    27    1
     8     5    33    1
     9     6    34    1
    10     6    43    1
    11     7    38    1
    12     8    25    1
    13     9    23   ar
    14     9    21   ar
    15    10    25   ar
    16    10    28   ar
    17    11    27   ar
    18    11    28   ar
    19    12    37   ar
    20    12    35   ar
    21    13    15   ar
    22    13    42   ar
    23    14    42   ar
    24    14    16   ar
    25    15    16   ar
    26    17    18    1
    27    17    20    1
    28    17    19    1
    29    18    23   ar
    30    18    22   ar
    31    21    24   ar
    32    22    24   ar
    33    25    26   ar
    34    26    27   ar
    35    28    29    1
    36    29    31   ar
    37    29    32   ar
    38    30    36   ar
    39    30    34   ar
    40    31    35   ar
    41    32    37   ar
    42    33    38    1
    43    34    39   ar
    44    35    42    1
    45    36    40   ar
    46    39    41   ar
    47    40    41   ar
    48     7    44    1
    49     8    45    1
    50    15    46    1
    51    17    47    1
    52    19    48    1
    53    19    49    1
    54    19    50    1
    55    20    51    1
    56    20    52    1
    57    20    53    1
    58    22    54    1
    59    23    55    1
    60    24    56    1
    61    31    57    1
    62    32    58    1
    63    33    59    1
    64    33    60    1
    65    36    61    1
    66    37    62    1
    67    38    63    1
    68    38    64    1
    69    39    65    1
    70    40    66    1
    71    41    67    1
    72    43    68    1
    73    43    69    1
    74    43    70    1
@<TRIPOS>MOLECULE
9939443
 70 74 0 0 0
SMALL
GASTEIGER

@<TRIPOS>ATOM
      1 S           4.1492    4.0194    8.8862 S.O2    1  LIG1        0.0908
      2 O           4.1438    3.0535    5.6762 O.3     1  LIG1       -0.4435
      3 O           4.7606    4.6127   10.0634 O.2     1  LIG1       -0.1484
      4 O           4.5565    2.7009    8.4489 O.2     1  LIG1       -0.1484
      5 O           1.4847    2.8629    4.5995 O.3     1  LIG1       -0.4715
      6 O           6.3940    1.6384    5.8622 O.3     1  LIG1       -0.4914
      7 O          -1.2687    1.8244    2.4461 O.3     1  LIG1       -0.3917
      8 N           4.4025    5.1269    7.6042 N.pl3   1  LIG1       -0.1950
      9 N           1.8289    5.1062    9.6487 N.ar    1  LIG1       -0.2351
     10 N           2.5897    6.1545    6.7296 N.ar    1  LIG1       -0.2073
     11 N           1.0435    5.0305    5.3417 N.ar    1  LIG1       -0.1899
     12 N          -1.4018    9.2592    6.6770 N.ar    1  LIG1       -0.2552
     13 N          -4.1349    8.8683    5.8054 N.ar    1  LIG1       -0.5621
     14 N          -3.7922    6.6344    5.7245 N.ar    1  LIG1       -0.1535
     15 N          -5.2380    8.1552    5.5519 N.ar    1  LIG1       -0.3597
     16 N          -5.0835    6.8277    5.4998 N.ar    1  LIG1       -0.0878
     17 C          -1.8884    4.2352    9.2640 C.3     1  LIG1       -0.0201
     18 C          -0.3712    4.1391    9.2480 C.ar    1  LIG1       -0.0266
     19 C          -2.4969    3.1963   10.2136 C.3     1  LIG1       -0.0586
     20 C          -2.4518    5.6201    9.6030 C.3     1  LIG1       -0.0586
     21 C           2.3643    3.9727    9.1272 C.ar    1  LIG1        0.1969
     22 C           0.2419    2.9918    8.7182 C.ar    1  LIG1       -0.0535
     23 C           0.4767    5.1467    9.7127 C.ar    1  LIG1        0.0332
     24 C           1.6297    2.8910    8.6677 C.ar    1  LIG1       -0.0160
     25 C           3.4105    5.1018    6.5841 C.ar    1  LIG1        0.1882
     26 C           3.2041    4.0350    5.7287 C.ar    1  LIG1        0.2307
     27 C           1.9333    4.0243    5.1947 C.ar    1  LIG1        0.2641
     28 C           1.4214    6.0813    6.0831 C.ar    1  LIG1        0.1659
     29 C           0.4557    7.1732    6.2816 C.ar    1  LIG1        0.0227
     30 C           4.5982    2.4771    4.5109 C.ar    1  LIG1        0.1702
     31 C          -0.9061    7.0072    5.9818 C.ar    1  LIG1       -0.0252
     32 C           0.8505    8.4167    6.7934 C.ar    1  LIG1       -0.0328
     33 C           0.2235    2.9961    3.9415 C.3     1  LIG1        0.1143
     34 C           5.7367    1.6641    4.6565 C.ar    1  LIG1        0.1621
     35 C          -1.7988    8.0561    6.1913 C.ar    1  LIG1        0.0708
     36 C           4.0449    2.5954    3.2355 C.ar    1  LIG1       -0.0157
     37 C          -0.0955    9.4123    6.9659 C.ar    1  LIG1        0.0289
     38 C          -0.0295    1.7287    3.1344 C.3     1  LIG1        0.0783
     39 C           6.2094    0.8723    3.6056 C.ar    1  LIG1       -0.0163
     40 C           4.5204    1.8097    2.1755 C.ar    1  LIG1       -0.0581
     41 C           5.5844    0.9315    2.3660 C.ar    1  LIG1       -0.0581
     42 C          -3.2249    7.8798    5.9103 C.ar    1  LIG1        0.0207
     43 C           7.6813    2.2502    5.7421 C.3     1  LIG1        0.0790
     44 H          -1.3877    0.9922    1.9563 H       1  LIG1        0.2095
     45 H           4.4758    6.0574    8.0145 H       1  LIG1        0.1754
     46 H          -6.1427    8.5940    5.4045 H       1  LIG1        0.1651
     47 H          -2.2294    4.0053    8.2447 H       1  LIG1        0.0344
     48 H          -2.1581    3.3522   11.2439 H       1  LIG1        0.0235
     49 H          -2.2233    2.1758    9.9247 H       1  LIG1        0.0235
     50 H          -3.5910    3.2539   10.2034 H       1  LIG1        0.0235
     51 H          -2.2244    5.9071   10.6358 H       1  LIG1        0.0235
     52 H          -3.5418    5.6297    9.4906 H       1  LIG1        0.0235
     53 H          -2.0466    6.3892    8.9378 H       1  LIG1        0.0235
     54 H          -0.3623    2.1759    8.3253 H       1  LIG1        0.0622
     55 H           0.0912    6.0622   10.1537 H       1  LIG1        0.0833
     56 H           2.1082    2.0174    8.2368 H       1  LIG1        0.0653
     57 H          -1.2676    6.0574    5.5937 H       1  LIG1        0.0646
     58 H           1.8863    8.6147    7.0557 H       1  LIG1        0.0640
     59 H           0.2192    3.8566    3.2590 H       1  LIG1        0.0720
     60 H          -0.5801    3.1285    4.6771 H       1  LIG1        0.0720
     61 H           3.2263    3.2689    3.0180 H       1  LIG1        0.0655
     62 H           0.1819   10.3883    7.3550 H       1  LIG1        0.0830
     63 H           0.7727    1.5771    2.4042 H       1  LIG1        0.0591
     64 H          -0.0496    0.8537    3.7926 H       1  LIG1        0.0591
     65 H           7.0538    0.2069    3.7595 H       1  LIG1        0.0655
     66 H           4.0449    1.8754    1.2000 H       1  LIG1        0.0619
     67 H           5.9344    0.3061    1.5491 H       1  LIG1        0.0619
     68 H           7.9741    2.6286    6.7257 H       1  LIG1        0.0660
     69 H           7.6829    3.0972    5.0437 H       1  LIG1        0.0660
     70 H           8.4212    1.5067    5.4273 H       1  LIG1        0.0660
@<TRIPOS>BOND
     1     1    21    1
     2     1     8    1
     3     1     4    2
     4     1     3    2
     5     2    26    1
     6     2    30    1
     7     5    27    1
     8     5    33    1
     9     6    34    1
    10     6    43    1
    11     7    38    1
    12     8    25    1
    13     9    23   ar
    14     9    21   ar
    15    10    25   ar
    16    10    28   ar
    17    11    27   ar
    18    11    28   ar
    19    12    37   ar
    20    12    35   ar
    21    13    15   ar
    22    13    42   ar
    23    14    42   ar
    24    14    16   ar
    25    15    16   ar
    26    17    18    1
    27    17    20    1
    28    17    19    1
    29    18    23   ar
    30    18    22   ar
    31    21    24   ar
    32    22    24   ar
    33    25    26   ar
    34    26    27   ar
    35    28    29    1
    36    29    31   ar
    37    29    32   ar
    38    30    36   ar
    39    30    34   ar
    40    31    35   ar
    41    32    37   ar
    42    33    38    1
    43    34    39   ar
    44    35    42    1
    45    36    40   ar
    46    39    41   ar
    47    40    41   ar
    48     7    44    1
    49     8    45    1
    50    15    46    1
    51    17    47    1
    52    19    48    1
    53    19    49    1
    54    19    50    1
    55    20    51    1
    56    20    52    1
    57    20    53    1
    58    22    54    1
    59    23    55    1
    60    24    56    1
    61    31    57    1
    62    32    58    1
    63    33    59    1
    64    33    60    1
    65    36    61    1
    66    37    62    1
    67    38    63    1
    68    38    64    1
    69    39    65    1
    70    40    66    1
    71    41    67    1
    72    43    68    1
    73    43    69    1
    74    43    70    1
@<TRIPOS>MOLECULE
9939443
 70 74 0 0 0
SMALL
GASTEIGER

@<TRIPOS>ATOM
      1 S           5.6740    6.2452    7.3980 S.O2    1  LIG1        0.0908
      2 O           4.4196    3.4345    5.7789 O.3     1  LIG1       -0.4435
      3 O           5.2977    6.9778    6.2049 O.2     1  LIG1       -0.1484
      4 O           6.8532    5.4061    7.4215 O.2     1  LIG1       -0.1484
      5 O           1.7425    3.2407    4.3252 O.3     1  LIG1       -0.4715
      6 O           6.1660    1.2825    5.5765 O.3     1  LIG1       -0.4914
      7 O           2.3265    1.6138    6.9731 O.3     1  LIG1       -0.3917
      8 N           4.4194    5.2121    7.8761 N.pl3   1  LIG1       -0.1950
      9 N           6.9041    7.3956    9.4755 N.ar    1  LIG1       -0.2351
     10 N           2.3939    6.0663    7.1962 N.ar    1  LIG1       -0.2073
     11 N           1.1250    5.0697    5.4618 N.ar    1  LIG1       -0.1899
     12 N          -1.4658    9.2777    6.6914 N.ar    1  LIG1       -0.2552
     13 N          -3.7194    9.4189    4.9361 N.ar    1  LIG1       -0.5621
     14 N          -3.2378    7.3890    4.0650 N.ar    1  LIG1       -0.1535
     15 N          -4.5875    9.0045    4.0079 N.ar    1  LIG1       -0.3597
     16 N          -4.3441    7.8066    3.4662 N.ar    1  LIG1       -0.0878
     17 C           6.3067   10.3341   11.8039 C.3     1  LIG1       -0.0201
     18 C           6.0416    9.2960   10.7298 C.ar    1  LIG1       -0.0266
     19 C           5.7315   11.7172   11.4783 C.3     1  LIG1       -0.0586
     20 C           5.8027    9.8550   13.1661 C.3     1  LIG1       -0.0586
     21 C           5.7491    7.4095    8.7623 C.ar    1  LIG1        0.1969
     22 C           4.8514    9.2366    9.9927 C.ar    1  LIG1       -0.0535
     23 C           7.0170    8.3387   10.4372 C.ar    1  LIG1        0.0332
     24 C           4.7022    8.2893    8.9807 C.ar    1  LIG1       -0.0160
     25 C           3.3336    5.1416    6.9577 C.ar    1  LIG1        0.1882
     26 C           3.3125    4.2142    5.9287 C.ar    1  LIG1        0.2307
     27 C           2.1012    4.1497    5.2724 C.ar    1  LIG1        0.2641
     28 C           1.3247    6.0198    6.3895 C.ar    1  LIG1        0.1659
     29 C           0.3400    7.1143    6.5058 C.ar    1  LIG1        0.0227
     30 C           4.9462    3.1419    4.5409 C.ar    1  LIG1        0.1702
     31 C          -0.8036    7.1842    5.6914 C.ar    1  LIG1       -0.0252
     32 C           0.5319    8.1618    7.4203 C.ar    1  LIG1       -0.0328
     33 C           1.9586    1.8469    4.5723 C.3     1  LIG1        0.1143
     34 C           5.7841    2.0139    4.4787 C.ar    1  LIG1        0.1621
     35 C          -1.6748    8.2687    5.8058 C.ar    1  LIG1        0.0708
     36 C           4.6606    3.8400    3.3629 C.ar    1  LIG1       -0.0157
     37 C          -0.3760    9.2032    7.4733 C.ar    1  LIG1        0.0289
     38 C           1.4401    1.2978    5.9015 C.3     1  LIG1        0.0783
     39 C           6.2010    1.5110    3.2453 C.ar    1  LIG1       -0.0163
     40 C           5.0976    3.3423    2.1305 C.ar    1  LIG1       -0.0581
     41 C           5.8474    2.1685    2.0693 C.ar    1  LIG1       -0.0581
     42 C          -2.8655    8.3754    4.9564 C.ar    1  LIG1        0.0207
     43 C           6.8283    2.0784    6.5616 C.3     1  LIG1        0.0790
     44 H           2.0956    1.0282    7.7151 H       1  LIG1        0.2095
     45 H           4.8429    4.2965    8.0326 H       1  LIG1        0.1754
     46 H          -5.3864    9.5662    3.7277 H       1  LIG1        0.1651
     47 H           7.3949   10.4673   11.8775 H       1  LIG1        0.0344
     48 H           4.6365   11.7237   11.5041 H       1  LIG1        0.0235
     49 H           6.0498   12.0532   10.4853 H       1  LIG1        0.0235
     50 H           6.0787   12.4573   12.2080 H       1  LIG1        0.0235
     51 H           4.7174    9.7059   13.1645 H       1  LIG1        0.0235
     52 H           6.0417   10.5871   13.9457 H       1  LIG1        0.0235
     53 H           6.2702    8.9053   13.4484 H       1  LIG1        0.0235
     54 H           4.0407    9.9355   10.1814 H       1  LIG1        0.0622
     55 H           7.9586    8.3133   10.9821 H       1  LIG1        0.0833
     56 H           3.8066    8.2527    8.3721 H       1  LIG1        0.0653
     57 H          -1.0021    6.4013    4.9622 H       1  LIG1        0.0646
     58 H           1.3898    8.1778    8.0843 H       1  LIG1        0.0640
     59 H           3.0028    1.5801    4.4214 H       1  LIG1        0.0720
     60 H           1.4078    1.3373    3.7726 H       1  LIG1        0.0720
     61 H           4.0655    4.7485    3.3680 H       1  LIG1        0.0655
     62 H          -0.2412   10.0314    8.1630 H       1  LIG1        0.0830
     63 H           0.4510    1.6949    6.1412 H       1  LIG1        0.0591
     64 H           1.3898    0.2054    5.8356 H       1  LIG1        0.0591
     65 H           6.7988    0.6042    3.2049 H       1  LIG1        0.0655
     66 H           4.8321    3.8621    1.2124 H       1  LIG1        0.0619
     67 H           6.1628    1.7697    1.1084 H       1  LIG1        0.0619
     68 H           7.5689    1.4464    7.0603 H       1  LIG1        0.0660
     69 H           6.1115    2.4057    7.3202 H       1  LIG1        0.0660
     70 H           7.3555    2.9376    6.1312 H       1  LIG1        0.0660
@<TRIPOS>BOND
     1     1    21    1
     2     1     8    1
     3     1     4    2
     4     1     3    2
     5     2    26    1
     6     2    30    1
     7     5    27    1
     8     5    33    1
     9     6    34    1
    10     6    43    1
    11     7    38    1
    12     8    25    1
    13     9    23   ar
    14     9    21   ar
    15    10    25   ar
    16    10    28   ar
    17    11    27   ar
    18    11    28   ar
    19    12    37   ar
    20    12    35   ar
    21    13    15   ar
    22    13    42   ar
    23    14    42   ar
    24    14    16   ar
    25    15    16   ar
    26    17    18    1
    27    17    20    1
    28    17    19    1
    29    18    23   ar
    30    18    22   ar
    31    21    24   ar
    32    22    24   ar
    33    25    26   ar
    34    26    27   ar
    35    28    29    1
    36    29    31   ar
    37    29    32   ar
    38    30    36   ar
    39    30    34   ar
    40    31    35   ar
    41    32    37   ar
    42    33    38    1
    43    34    39   ar
    44    35    42    1
    45    36    40   ar
    46    39    41   ar
    47    40    41   ar
    48     7    44    1
    49     8    45    1
    50    15    46    1
    51    17    47    1
    52    19    48    1
    53    19    49    1
    54    19    50    1
    55    20    51    1
    56    20    52    1
    57    20    53    1
    58    22    54    1
    59    23    55    1
    60    24    56    1
    61    31    57    1
    62    32    58    1
    63    33    59    1
    64    33    60    1
    65    36    61    1
    66    37    62    1
    67    38    63    1
    68    38    64    1
    69    39    65    1
    70    40    66    1
    71    41    67    1
    72    43    68    1
    73    43    69    1
    74    43    70    1
@<TRIPOS>MOLECULE
9939443
 70 74 0 0 0
SMALL
GASTEIGER

@<TRIPOS>ATOM
      1 S           5.6988    6.0198    7.5281 S.O2    1  LIG1        0.0908
      2 O           4.4968    3.4228    5.7286 O.3     1  LIG1       -0.4435
      3 O           5.5178    6.6918    6.2615 O.2     1  LIG1       -0.1484
      4 O           6.8480    5.1666    7.7728 O.2     1  LIG1       -0.1484
      5 O           1.9142    3.2085    4.2201 O.3     1  LIG1       -0.4715
      6 O           6.1926    1.2328    5.4280 O.3     1  LIG1       -0.4914
      7 O           1.8267    1.7849    7.0596 O.3     1  LIG1       -0.3917
      8 N           4.3246    5.1233    7.9635 N.pl3   1  LIG1       -0.1950
      9 N           4.5025    7.9296    8.9243 N.ar    1  LIG1       -0.2351
     10 N           2.3221    5.8870    7.2501 N.ar    1  LIG1       -0.2073
     11 N           1.1606    4.9787    5.4000 N.ar    1  LIG1       -0.1899
     12 N          -1.7063    8.9003    6.9007 N.ar    1  LIG1       -0.2552
     13 N           0.6595   10.2232    9.3884 N.ar    1  LIG1       -0.5621
     14 N          -1.3394   11.0397    8.7070 N.ar    1  LIG1       -0.1535
     15 N           0.2951   11.3670    9.9884 N.ar    1  LIG1       -0.3597
     16 N          -0.8795   11.8813    9.6214 N.ar    1  LIG1       -0.0878
     17 C           5.0700    9.8568   12.1435 C.3     1  LIG1       -0.0201
     18 C           5.3246    8.9157   10.9837 C.ar    1  LIG1       -0.0266
     19 C           4.9403    9.0968   13.4661 C.3     1  LIG1       -0.0586
     20 C           6.1493   10.9377   12.2429 C.3     1  LIG1       -0.0586
     21 C           5.6786    7.2531    8.8410 C.ar    1  LIG1        0.1969
     22 C           6.4964    8.1511   10.8785 C.ar    1  LIG1       -0.0535
     23 C           4.3722    8.7683    9.9747 C.ar    1  LIG1        0.0332
     24 C           6.6865    7.3049    9.7879 C.ar    1  LIG1       -0.0160
     25 C           3.3268    5.0513    6.9609 C.ar    1  LIG1        0.1882
     26 C           3.3830    4.1878    5.8879 C.ar    1  LIG1        0.2307
     27 C           2.1902    4.1213    5.1989 C.ar    1  LIG1        0.2641
     28 C           1.2900    5.8631    6.4014 C.ar    1  LIG1        0.1659
     29 C           0.2514    6.8930    6.5796 C.ar    1  LIG1        0.0227
     30 C           5.0325    3.1772    4.4848 C.ar    1  LIG1        0.1702
     31 C           0.4207    7.9481    7.4966 C.ar    1  LIG1       -0.0252
     32 C          -0.9301    6.8850    5.8287 C.ar    1  LIG1       -0.0328
     33 C           1.9562    1.8332    4.6320 C.3     1  LIG1        0.1143
     34 C           5.8573    2.0448    4.3726 C.ar    1  LIG1        0.1621
     35 C          -0.5628    8.9246    7.6298 C.ar    1  LIG1        0.0708
     36 C           4.8039    3.9635    3.3511 C.ar    1  LIG1       -0.0157
     37 C          -1.8616    7.8908    6.0209 C.ar    1  LIG1        0.0289
     38 C           1.1109    1.4875    5.8614 C.3     1  LIG1        0.0783
     39 C           6.3312    1.6362    3.1245 C.ar    1  LIG1       -0.0163
     40 C           5.2992    3.5625    2.1060 C.ar    1  LIG1       -0.0581
     41 C           6.0466    2.3916    1.9894 C.ar    1  LIG1       -0.0581
     42 C          -0.3993   10.0390    8.5677 C.ar    1  LIG1        0.0207
     43 C           6.8257    1.9504    6.4908 C.3     1  LIG1        0.0790
     44 H           1.3217    1.4047    7.7987 H       1  LIG1        0.2095
     45 H           3.8830    5.5921    8.7576 H       1  LIG1        0.1754
     46 H           0.8752   11.8235   10.6865 H       1  LIG1        0.1651
     47 H           4.1153   10.3721   11.9718 H       1  LIG1        0.0344
     48 H           5.8741    8.5955   13.7432 H       1  LIG1        0.0235
     49 H           4.1568    8.3332   13.4051 H       1  LIG1        0.0235
     50 H           4.6765    9.7818   14.2795 H       1  LIG1        0.0235
     51 H           7.1340   10.5143   12.4692 H       1  LIG1        0.0235
     52 H           5.9061   11.6532   13.0360 H       1  LIG1        0.0235
     53 H           6.2328   11.4943   11.3030 H       1  LIG1        0.0235
     54 H           7.2605    8.1990   11.6514 H       1  LIG1        0.0622
     55 H           3.4407    9.3306    9.9872 H       1  LIG1        0.0833
     56 H           7.5724    6.6832    9.7110 H       1  LIG1        0.0653
     57 H           1.3284    8.0140    8.0932 H       1  LIG1        0.0646
     58 H          -1.1231    6.1083    5.0939 H       1  LIG1        0.0640
     59 H           2.9877    1.4988    4.7609 H       1  LIG1        0.0720
     60 H           1.5507    1.2741    3.7807 H       1  LIG1        0.0720
     61 H           4.2249    4.8809    3.4044 H       1  LIG1        0.0655
     62 H          -2.7858    7.9135    5.4500 H       1  LIG1        0.0830
     63 H           0.1687    2.0423    5.8735 H       1  LIG1        0.0591
     64 H           0.9036    0.4128    5.8679 H       1  LIG1        0.0591
     65 H           6.9289    0.7325    3.0430 H       1  LIG1        0.0655
     66 H           5.0892    4.1611    1.2229 H       1  LIG1        0.0619
     67 H           6.4162    2.0730    1.0183 H       1  LIG1        0.0619
     68 H           7.5431    1.2751    6.9670 H       1  LIG1        0.0660
     69 H           6.0873    2.2343    7.2462 H       1  LIG1        0.0660
     70 H           7.3789    2.8292    6.1392 H       1  LIG1        0.0660
@<TRIPOS>BOND
     1     1    21    1
     2     1     8    1
     3     1     4    2
     4     1     3    2
     5     2    26    1
     6     2    30    1
     7     5    27    1
     8     5    33    1
     9     6    34    1
    10     6    43    1
    11     7    38    1
    12     8    25    1
    13     9    23   ar
    14     9    21   ar
    15    10    25   ar
    16    10    28   ar
    17    11    27   ar
    18    11    28   ar
    19    12    37   ar
    20    12    35   ar
    21    13    15   ar
    22    13    42   ar
    23    14    42   ar
    24    14    16   ar
    25    15    16   ar
    26    17    18    1
    27    17    20    1
    28    17    19    1
    29    18    23   ar
    30    18    22   ar
    31    21    24   ar
    32    22    24   ar
    33    25    26   ar
    34    26    27   ar
    35    28    29    1
    36    29    31   ar
    37    29    32   ar
    38    30    36   ar
    39    30    34   ar
    40    31    35   ar
    41    32    37   ar
    42    33    38    1
    43    34    39   ar
    44    35    42    1
    45    36    40   ar
    46    39    41   ar
    47    40    41   ar
    48     7    44    1
    49     8    45    1
    50    15    46    1
    51    17    47    1
    52    19    48    1
    53    19    49    1
    54    19    50    1
    55    20    51    1
    56    20    52    1
    57    20    53    1
    58    22    54    1
    59    23    55    1
    60    24    56    1
    61    31    57    1
    62    32    58    1
    63    33    59    1
    64    33    60    1
    65    36    61    1
    66    37    62    1
    67    38    63    1
    68    38    64    1
    69    39    65    1
    70    40    66    1
    71    41    67    1
    72    43    68    1
    73    43    69    1
    74    43    70    1
@<TRIPOS>MOLECULE
9939443
 70 74 0 0 0
SMALL
GASTEIGER

@<TRIPOS>ATOM
      1 S           5.6996    6.2464    7.3053 S.O2    1  LIG1        0.0908
      2 O           4.4510    3.3305    5.8210 O.3     1  LIG1       -0.4435
      3 O           5.2503    6.9295    6.1088 O.2     1  LIG1       -0.1484
      4 O           6.9117    5.4492    7.2992 O.2     1  LIG1       -0.1484
      5 O           1.8426    3.1352    4.3661 O.3     1  LIG1       -0.4715
      6 O           6.1762    1.2025    5.4958 O.3     1  LIG1       -0.4914
      7 O           1.8756    1.7317    7.2017 O.3     1  LIG1       -0.3917
      8 N           4.5030    5.1842    7.8649 N.pl3   1  LIG1       -0.1950
      9 N           6.9210    7.4265    9.3671 N.ar    1  LIG1       -0.2351
     10 N           2.4265    5.9728    7.2417 N.ar    1  LIG1       -0.2073
     11 N           1.1544    4.9485    5.5174 N.ar    1  LIG1       -0.1899
     12 N          -1.6569    8.9411    6.8929 N.ar    1  LIG1       -0.2552
     13 N          -1.2592   11.0439    8.8302 N.ar    1  LIG1       -0.5621
     14 N           0.7686   10.2053    9.3772 N.ar    1  LIG1       -0.1535
     15 N          -0.6017   11.7595    9.7491 N.ar    1  LIG1       -0.3597
     16 N           0.6035   11.2997   10.1051 N.ar    1  LIG1       -0.0878
     17 C           6.2405   10.2955   11.7555 C.3     1  LIG1       -0.0201
     18 C           6.0190    9.2980   10.6356 C.ar    1  LIG1       -0.0266
     19 C           5.6889   11.6927   11.4516 C.3     1  LIG1       -0.0586
     20 C           5.6658    9.7674   13.0708 C.3     1  LIG1       -0.0586
     21 C           5.7778    7.4437    8.6361 C.ar    1  LIG1        0.1969
     22 C           4.8474    9.2512    9.8682 C.ar    1  LIG1       -0.0535
     23 C           7.0078    8.3556   10.3419 C.ar    1  LIG1        0.0332
     24 C           4.7234    8.3197    8.8407 C.ar    1  LIG1       -0.0160
     25 C           3.3838    5.0662    6.9969 C.ar    1  LIG1        0.1882
     26 C           3.3595    4.1293    5.9824 C.ar    1  LIG1        0.2307
     27 C           2.1527    4.0591    5.3226 C.ar    1  LIG1        0.2641
     28 C           1.3433    5.8928    6.4549 C.ar    1  LIG1        0.1659
     29 C           0.3030    6.9258    6.6154 C.ar    1  LIG1        0.0227
     30 C           5.0043    3.1326    4.5748 C.ar    1  LIG1        0.1702
     31 C           0.4458    7.9681    7.5475 C.ar    1  LIG1       -0.0252
     32 C          -0.8590    6.9294    5.8324 C.ar    1  LIG1       -0.0328
     33 C           1.9222    1.7613    4.7723 C.3     1  LIG1        0.1143
     34 C           5.8490    2.0196    4.4433 C.ar    1  LIG1        0.1621
     35 C          -0.5347    8.9519    7.6557 C.ar    1  LIG1        0.0708
     36 C           4.7739    3.9434    3.4574 C.ar    1  LIG1       -0.0157
     37 C          -1.7929    7.9370    6.0050 C.ar    1  LIG1        0.0289
     38 C           1.1250    1.4109    6.0316 C.3     1  LIG1        0.0783
     39 C           6.3486    1.6482    3.1959 C.ar    1  LIG1       -0.0163
     40 C           5.2958    3.5827    2.2114 C.ar    1  LIG1       -0.0581
     41 C           6.0661    2.4274    2.0754 C.ar    1  LIG1       -0.0581
     42 C          -0.3681   10.0581    8.6037 C.ar    1  LIG1        0.0207
     43 C           6.9470    1.9023    6.4785 C.3     1  LIG1        0.0790
     44 H           1.3741    1.3825    7.9627 H       1  LIG1        0.2095
     45 H           4.9656    4.2880    8.0246 H       1  LIG1        0.1754
     46 H          -0.9928   12.6049   10.1551 H       1  LIG1        0.1651
     47 H           7.3245   10.4168   11.8878 H       1  LIG1        0.0344
     48 H           4.5945   11.7050   11.4198 H       1  LIG1        0.0235
     49 H           6.0612   12.0624   10.4901 H       1  LIG1        0.0235
     50 H           6.0008   12.4025   12.2260 H       1  LIG1        0.0235
     51 H           4.5810    9.6282   13.0097 H       1  LIG1        0.0235
     52 H           5.8705   10.4649   13.8908 H       1  LIG1        0.0235
     53 H           6.1112    8.8023   13.3367 H       1  LIG1        0.0235
     54 H           4.0234    9.9374   10.0563 H       1  LIG1        0.0622
     55 H           7.9383    8.3250   10.9089 H       1  LIG1        0.0833
     56 H           3.8345    8.2835    8.2212 H       1  LIG1        0.0653
     57 H           1.3268    8.0136    8.1808 H       1  LIG1        0.0646
     58 H          -1.0363    6.1593    5.0860 H       1  LIG1        0.0640
     59 H           2.9615    1.4416    4.8614 H       1  LIG1        0.0720
     60 H           1.4928    1.1973    3.9358 H       1  LIG1        0.0720
     61 H           4.1786    4.8490    3.5219 H       1  LIG1        0.0655
     62 H          -2.7013    7.9656    5.4088 H       1  LIG1        0.0830
     63 H           0.1752    1.9505    6.0682 H       1  LIG1        0.0591
     64 H           0.9354    0.3328    6.0521 H       1  LIG1        0.0591
     65 H           6.9628    0.7568    3.0998 H       1  LIG1        0.0655
     66 H           5.0905    4.2002    1.3405 H       1  LIG1        0.0619
     67 H           6.4557    2.1415    1.1021 H       1  LIG1        0.0619
     68 H           7.6265    1.1827    6.9448 H       1  LIG1        0.0660
     69 H           6.2895    2.2946    7.2609 H       1  LIG1        0.0660
     70 H           7.5535    2.7094    6.0501 H       1  LIG1        0.0660
@<TRIPOS>BOND
     1     1    21    1
     2     1     8    1
     3     1     4    2
     4     1     3    2
     5     2    26    1
     6     2    30    1
     7     5    27    1
     8     5    33    1
     9     6    34    1
    10     6    43    1
    11     7    38    1
    12     8    25    1
    13     9    23   ar
    14     9    21   ar
    15    10    25   ar
    16    10    28   ar
    17    11    27   ar
    18    11    28   ar
    19    12    37   ar
    20    12    35   ar
    21    13    15   ar
    22    13    42   ar
    23    14    42   ar
    24    14    16   ar
    25    15    16   ar
    26    17    18    1
    27    17    20    1
    28    17    19    1
    29    18    23   ar
    30    18    22   ar
    31    21    24   ar
    32    22    24   ar
    33    25    26   ar
    34    26    27   ar
    35    28    29    1
    36    29    31   ar
    37    29    32   ar
    38    30    36   ar
    39    30    34   ar
    40    31    35   ar
    41    32    37   ar
    42    33    38    1
    43    34    39   ar
    44    35    42    1
    45    36    40   ar
    46    39    41   ar
    47    40    41   ar
    48     7    44    1
    49     8    45    1
    50    15    46    1
    51    17    47    1
    52    19    48    1
    53    19    49    1
    54    19    50    1
    55    20    51    1
    56    20    52    1
    57    20    53    1
    58    22    54    1
    59    23    55    1
    60    24    56    1
    61    31    57    1
    62    32    58    1
    63    33    59    1
    64    33    60    1
    65    36    61    1
    66    37    62    1
    67    38    63    1
    68    38    64    1
    69    39    65    1
    70    40    66    1
    71    41    67    1
    72    43    68    1
    73    43    69    1
    74    43    70    1
@<TRIPOS>MOLECULE
9939443
 70 74 0 0 0
SMALL
GASTEIGER

@<TRIPOS>ATOM
      1 S           5.6491    6.2559    7.2960 S.O2    1  LIG1        0.0908
      2 O           4.3507    3.2992    5.8602 O.3     1  LIG1       -0.4435
      3 O           5.2067    6.9336    6.0941 O.2     1  LIG1       -0.1484
      4 O           6.8469    5.4369    7.2903 O.2     1  LIG1       -0.1484
      5 O           1.7934    3.1550    4.3490 O.3     1  LIG1       -0.4715
      6 O           6.0806    1.1872    5.6067 O.3     1  LIG1       -0.4914
      7 O          -0.4530    1.2089    4.9954 O.3     1  LIG1       -0.3917
      8 N           4.4379    5.2099    7.8593 N.pl3   1  LIG1       -0.1950
      9 N           6.8951    7.4299    9.3438 N.ar    1  LIG1       -0.2351
     10 N           2.3769    6.0166    7.2061 N.ar    1  LIG1       -0.2073
     11 N           1.1103    4.9990    5.4720 N.ar    1  LIG1       -0.1899
     12 N          -1.6960    8.9941    6.8608 N.ar    1  LIG1       -0.2552
     13 N          -1.2901   11.0828    8.8173 N.ar    1  LIG1       -0.5621
     14 N           0.7444   10.2440    9.3387 N.ar    1  LIG1       -0.1535
     15 N          -0.6282   11.7882    9.7407 N.ar    1  LIG1       -0.3597
     16 N           0.5816   11.3289   10.0812 N.ar    1  LIG1       -0.0878
     17 C           6.2478   10.2949   11.7469 C.3     1  LIG1       -0.0201
     18 C           6.0122    9.3028   10.6255 C.ar    1  LIG1       -0.0266
     19 C           5.7001   11.6955   11.4527 C.3     1  LIG1       -0.0586
     20 C           5.6814    9.7650   13.0650 C.3     1  LIG1       -0.0586
     21 C           5.7465    7.4562    8.6224 C.ar    1  LIG1        0.1969
     22 C           4.8343    9.2631    9.8685 C.ar    1  LIG1       -0.0535
     23 C           6.9959    8.3562   10.3222 C.ar    1  LIG1        0.0332
     24 C           4.6967    8.3351    8.8386 C.ar    1  LIG1       -0.0160
     25 C           3.3226    5.0948    6.9851 C.ar    1  LIG1        0.1882
     26 C           3.2845    4.1371    5.9908 C.ar    1  LIG1        0.2307
     27 C           2.0887    4.0867    5.3063 C.ar    1  LIG1        0.2641
     28 C           1.2990    5.9445    6.4087 C.ar    1  LIG1        0.1659
     29 C           0.2625    6.9803    6.5679 C.ar    1  LIG1        0.0227
     30 C           4.9396    3.1000    4.6299 C.ar    1  LIG1        0.1702
     31 C           0.4110    8.0222    7.4986 C.ar    1  LIG1       -0.0252
     32 C          -0.9047    6.9825    5.7932 C.ar    1  LIG1       -0.0328
     33 C           1.8847    1.8016    4.8187 C.3     1  LIG1        0.1143
     34 C           5.7857    1.9847    4.5290 C.ar    1  LIG1        0.1621
     35 C          -0.5696    9.0044    7.6169 C.ar    1  LIG1        0.0708
     36 C           4.7442    3.9017    3.5014 C.ar    1  LIG1       -0.0157
     37 C          -1.8381    7.9896    5.9733 C.ar    1  LIG1        0.0289
     38 C           0.7305    0.9942    4.2301 C.3     1  LIG1        0.0783
     39 C           6.3207    1.6012    3.2991 C.ar    1  LIG1       -0.0163
     40 C           5.3001    3.5299    2.2722 C.ar    1  LIG1       -0.0581
     41 C           6.0710    2.3724    2.1669 C.ar    1  LIG1       -0.0581
     42 C          -0.3981   10.1024    8.5724 C.ar    1  LIG1        0.0207
     43 C           6.9204    1.8828    6.5343 C.3     1  LIG1        0.0790
     44 H          -1.1739    0.7425    4.5389 H       1  LIG1        0.2095
     45 H           4.8966    4.3150    8.0323 H       1  LIG1        0.1754
     46 H          -1.0196   12.6262   10.1618 H       1  LIG1        0.1651
     47 H           7.3332   10.4110   11.8703 H       1  LIG1        0.0344
     48 H           4.6051   11.7132   11.4297 H       1  LIG1        0.0235
     49 H           6.0658   12.0675   10.4892 H       1  LIG1        0.0235
     50 H           6.0213   12.4012   12.2270 H       1  LIG1        0.0235
     51 H           4.5952    9.6307   13.0121 H       1  LIG1        0.0235
     52 H           5.8965   10.4587   13.8852 H       1  LIG1        0.0235
     53 H           6.1246    8.7968   13.3237 H       1  LIG1        0.0235
     54 H           4.0149    9.9526   10.0638 H       1  LIG1        0.0622
     55 H           7.9292    8.3204   10.8795 H       1  LIG1        0.0833
     56 H           3.8023    8.3037    8.2280 H       1  LIG1        0.0653
     57 H           1.2954    8.0664    8.1283 H       1  LIG1        0.0646
     58 H          -1.0890    6.2089    5.0523 H       1  LIG1        0.0640
     59 H           1.8637    1.7389    5.9139 H       1  LIG1        0.0720
     60 H           2.8203    1.3792    4.4430 H       1  LIG1        0.0720
     61 H           4.1493    4.8101    3.5390 H       1  LIG1        0.0655
     62 H          -2.7519    8.0165    5.3857 H       1  LIG1        0.0830
     63 H           0.5302    1.2872    3.1946 H       1  LIG1        0.0591
     64 H           0.9607   -0.0746    4.2710 H       1  LIG1        0.0591
     65 H           6.9366    0.7091    3.2287 H       1  LIG1        0.0655
     66 H           5.1205    4.1423    1.3912 H       1  LIG1        0.0619
     67 H           6.4870    2.0792    1.2064 H       1  LIG1        0.0619
     68 H           7.5554    1.1430    7.0307 H       1  LIG1        0.0660
     69 H           6.3080    2.3678    7.3004 H       1  LIG1        0.0660
     70 H           7.5744    2.6187    6.0506 H       1  LIG1        0.0660
@<TRIPOS>BOND
     1     1    21    1
     2     1     8    1
     3     1     4    2
     4     1     3    2
     5     2    26    1
     6     2    30    1
     7     5    27    1
     8     5    33    1
     9     6    34    1
    10     6    43    1
    11     7    38    1
    12     8    25    1
    13     9    23   ar
    14     9    21   ar
    15    10    25   ar
    16    10    28   ar
    17    11    27   ar
    18    11    28   ar
    19    12    37   ar
    20    12    35   ar
    21    13    15   ar
    22    13    42   ar
    23    14    42   ar
    24    14    16   ar
    25    15    16   ar
    26    17    18    1
    27    17    20    1
    28    17    19    1
    29    18    23   ar
    30    18    22   ar
    31    21    24   ar
    32    22    24   ar
    33    25    26   ar
    34    26    27   ar
    35    28    29    1
    36    29    31   ar
    37    29    32   ar
    38    30    36   ar
    39    30    34   ar
    40    31    35   ar
    41    32    37   ar
    42    33    38    1
    43    34    39   ar
    44    35    42    1
    45    36    40   ar
    46    39    41   ar
    47    40    41   ar
    48     7    44    1
    49     8    45    1
    50    15    46    1
    51    17    47    1
    52    19    48    1
    53    19    49    1
    54    19    50    1
    55    20    51    1
    56    20    52    1
    57    20    53    1
    58    22    54    1
    59    23    55    1
    60    24    56    1
    61    31    57    1
    62    32    58    1
    63    33    59    1
    64    33    60    1
    65    36    61    1
    66    37    62    1
    67    38    63    1
    68    38    64    1
    69    39    65    1
    70    40    66    1
    71    41    67    1
    72    43    68    1
    73    43    69    1
    74    43    70    1
@<TRIPOS>MOLECULE
9939443
 70 74 0 0 0
SMALL
GASTEIGER

@<TRIPOS>ATOM
      1 S           5.6716    6.2741    7.2949 S.O2    1  LIG1        0.0908
      2 O           4.5146    3.3437    5.7802 O.3     1  LIG1       -0.4435
      3 O           6.4465    5.5904    6.2830 O.2     1  LIG1       -0.1484
      4 O           6.3258    6.7929    8.4847 O.2     1  LIG1       -0.1484
      5 O           1.9191    3.0887    4.3212 O.3     1  LIG1       -0.4715
      6 O           6.2103    1.1677    5.4300 O.3     1  LIG1       -0.4914
      7 O           1.7922    1.6752    7.1485 O.3     1  LIG1       -0.3917
      8 N           4.4620    5.2448    7.8808 N.pl3   1  LIG1       -0.1950
      9 N           4.2675    7.3631    5.3046 N.ar    1  LIG1       -0.2351
     10 N           2.3524    5.8191    7.3086 N.ar    1  LIG1       -0.2073
     11 N           1.1508    4.8391    5.5159 N.ar    1  LIG1       -0.1899
     12 N          -1.7021    8.7994    6.9218 N.ar    1  LIG1       -0.2552
     13 N          -1.3228   10.8512    8.9302 N.ar    1  LIG1       -0.5621
     14 N           0.8176   10.1853    9.2291 N.ar    1  LIG1       -0.1535
     15 N          -0.6263   11.6149    9.7797 N.ar    1  LIG1       -0.3597
     16 N           0.6480   11.2619    9.9821 N.ar    1  LIG1       -0.0878
     17 C           2.5688   10.6598    4.5251 C.3     1  LIG1       -0.0201
     18 C           3.3559    9.6168    5.2935 C.ar    1  LIG1       -0.0266
     19 C           1.7344   11.5916    5.4085 C.3     1  LIG1       -0.0586
     20 C           3.5056   11.4735    3.6294 C.3     1  LIG1       -0.0586
     21 C           4.7942    7.6436    6.5270 C.ar    1  LIG1        0.1969
     22 C           3.9331    9.8560    6.5479 C.ar    1  LIG1       -0.0535
     23 C           3.5682    8.3597    4.7223 C.ar    1  LIG1        0.0332
     24 C           4.6662    8.8562    7.1833 C.ar    1  LIG1       -0.0160
     25 C           3.3729    5.0014    7.0067 C.ar    1  LIG1        0.1882
     26 C           3.3998    4.1010    5.9613 C.ar    1  LIG1        0.2307
     27 C           2.1909    3.9995    5.3029 C.ar    1  LIG1        0.2641
     28 C           1.2897    5.7433    6.4963 C.ar    1  LIG1        0.1659
     29 C           0.2479    6.7743    6.6531 C.ar    1  LIG1        0.0227
     30 C           5.0322    3.1165    4.5250 C.ar    1  LIG1        0.1702
     31 C           0.4102    7.8387    7.5572 C.ar    1  LIG1       -0.0252
     32 C          -0.9249    6.7640    5.8883 C.ar    1  LIG1       -0.0328
     33 C           1.9843    1.7136    4.7266 C.3     1  LIG1        0.1143
     34 C           5.8605    1.9902    4.3871 C.ar    1  LIG1        0.1621
     35 C          -0.5690    8.8227    7.6669 C.ar    1  LIG1        0.0708
     36 C           4.7891    3.9211    3.4074 C.ar    1  LIG1       -0.0157
     37 C          -1.8536    7.7779    6.0555 C.ar    1  LIG1        0.0289
     38 C           1.1164    1.3515    5.9339 C.3     1  LIG1        0.0783
     39 C           6.3252    1.6043    3.1287 C.ar    1  LIG1       -0.0163
     40 C           5.2770    3.5445    2.1520 C.ar    1  LIG1       -0.0581
     41 C           6.0283    2.3786    2.0094 C.ar    1  LIG1       -0.0581
     42 C          -0.3858    9.9426    8.5941 C.ar    1  LIG1        0.0207
     43 C           6.8712    1.8797    6.4800 C.3     1  LIG1        0.0790
     44 H           1.2884    1.2685    7.8742 H       1  LIG1        0.2095
     45 H           4.1420    5.5775    8.7870 H       1  LIG1        0.1754
     46 H          -1.0389   12.4174   10.2472 H       1  LIG1        0.1651
     47 H           1.8559   10.1306    3.8779 H       1  LIG1        0.0344
     48 H           2.3603   12.2503    6.0199 H       1  LIG1        0.0235
     49 H           1.0859   11.0202    6.0794 H       1  LIG1        0.0235
     50 H           1.0943   12.2311    4.7908 H       1  LIG1        0.0235
     51 H           4.2444   12.0274    4.2196 H       1  LIG1        0.0235
     52 H           2.9403   12.1956    3.0307 H       1  LIG1        0.0235
     53 H           4.0535   10.8243    2.9372 H       1  LIG1        0.0235
     54 H           3.8234   10.8178    7.0432 H       1  LIG1        0.0622
     55 H           3.1645    8.1137    3.7424 H       1  LIG1        0.0833
     56 H           5.1107    9.0273    8.1580 H       1  LIG1        0.0653
     57 H           1.3076    7.9032    8.1678 H       1  LIG1        0.0646
     58 H          -1.1142    5.9787    5.1612 H       1  LIG1        0.0640
     59 H           3.0190    1.4012    4.8809 H       1  LIG1        0.0720
     60 H           1.6113    1.1495    3.8640 H       1  LIG1        0.0720
     61 H           4.2137    4.8385    3.4868 H       1  LIG1        0.0655
     62 H          -2.7712    7.7975    5.4735 H       1  LIG1        0.0830
     63 H           0.1603    1.8820    5.9174 H       1  LIG1        0.0591
     64 H           0.9366    0.2718    5.9400 H       1  LIG1        0.0591
     65 H           6.9285    0.7065    3.0278 H       1  LIG1        0.0655
     66 H           5.0627    4.1607    1.2825 H       1  LIG1        0.0619
     67 H           6.3952    2.0809    1.0309 H       1  LIG1        0.0619
     68 H           7.5818    1.1932    6.9503 H       1  LIG1        0.0660
     69 H           6.1502    2.1822    7.2453 H       1  LIG1        0.0660
     70 H           7.4359    2.7466    6.1173 H       1  LIG1        0.0660
@<TRIPOS>BOND
     1     1    21    1
     2     1     8    1
     3     1     4    2
     4     1     3    2
     5     2    26    1
     6     2    30    1
     7     5    27    1
     8     5    33    1
     9     6    34    1
    10     6    43    1
    11     7    38    1
    12     8    25    1
    13     9    23   ar
    14     9    21   ar
    15    10    25   ar
    16    10    28   ar
    17    11    27   ar
    18    11    28   ar
    19    12    37   ar
    20    12    35   ar
    21    13    15   ar
    22    13    42   ar
    23    14    42   ar
    24    14    16   ar
    25    15    16   ar
    26    17    18    1
    27    17    20    1
    28    17    19    1
    29    18    23   ar
    30    18    22   ar
    31    21    24   ar
    32    22    24   ar
    33    25    26   ar
    34    26    27   ar
    35    28    29    1
    36    29    31   ar
    37    29    32   ar
    38    30    36   ar
    39    30    34   ar
    40    31    35   ar
    41    32    37   ar
    42    33    38    1
    43    34    39   ar
    44    35    42    1
    45    36    40   ar
    46    39    41   ar
    47    40    41   ar
    48     7    44    1
    49     8    45    1
    50    15    46    1
    51    17    47    1
    52    19    48    1
    53    19    49    1
    54    19    50    1
    55    20    51    1
    56    20    52    1
    57    20    53    1
    58    22    54    1
    59    23    55    1
    60    24    56    1
    61    31    57    1
    62    32    58    1
    63    33    59    1
    64    33    60    1
    65    36    61    1
    66    37    62    1
    67    38    63    1
    68    38    64    1
    69    39    65    1
    70    40    66    1
    71    41    67    1
    72    43    68    1
    73    43    69    1
    74    43    70    1
@<TRIPOS>MOLECULE
9939443
 70 74 0 0 0
SMALL
GASTEIGER

@<TRIPOS>ATOM
      1 S           5.6331    6.1785    7.2421 S.O2    1  LIG1        0.0908
      2 O           4.4723    3.6299    5.2002 O.3     1  LIG1       -0.4435
      3 O           4.9222    7.3419    6.7448 O.2     1  LIG1       -0.1484
      4 O           6.6794    5.5544    6.4593 O.2     1  LIG1       -0.1484
      5 O           1.9974    3.6898    3.8040 O.3     1  LIG1       -0.4715
      6 O           5.6524    2.1672    7.2070 O.3     1  LIG1       -0.4914
      7 O          -0.8825    2.9497    4.7918 O.3     1  LIG1       -0.3917
      8 N           4.5095    5.0056    7.7187 N.pl3   1  LIG1       -0.1950
      9 N           6.4703    5.6702    9.7278 N.ar    1  LIG1       -0.2351
     10 N           2.3792    5.7220    7.3451 N.ar    1  LIG1       -0.2073
     11 N           1.1657    5.1688    5.3872 N.ar    1  LIG1       -0.1899
     12 N          -1.2535    9.2612    7.0173 N.ar    1  LIG1       -0.2552
     13 N          -2.7589   10.2041    4.7276 N.ar    1  LIG1       -0.5621
     14 N          -1.9821    8.4903    3.4734 N.ar    1  LIG1       -0.1535
     15 N          -3.1901   10.2122    3.4609 N.ar    1  LIG1       -0.3597
     16 N          -2.7602    9.2141    2.6827 N.ar    1  LIG1       -0.0878
     17 C           8.2680    7.6216   12.4988 C.3     1  LIG1       -0.0201
     18 C           7.5408    7.2811   11.2086 C.ar    1  LIG1       -0.0266
     19 C           7.3694    8.4216   13.4462 C.3     1  LIG1       -0.0586
     20 C           8.8628    6.4201   13.2427 C.3     1  LIG1       -0.0586
     21 C           6.3650    6.6689    8.8103 C.ar    1  LIG1        0.1969
     22 C           7.3278    8.2874   10.2511 C.ar    1  LIG1       -0.0535
     23 C           7.0742    6.0033   10.8938 C.ar    1  LIG1        0.0332
     24 C           6.7315    7.9853    9.0294 C.ar    1  LIG1       -0.0160
     25 C           3.3632    4.9223    6.8927 C.ar    1  LIG1        0.1882
     26 C           3.3354    4.2056    5.7038 C.ar    1  LIG1        0.2307
     27 C           2.1508    4.3405    5.0062 C.ar    1  LIG1        0.2641
     28 C           1.3321    5.8658    6.5204 C.ar    1  LIG1        0.1659
     29 C           0.4086    6.9935    6.7321 C.ar    1  LIG1        0.0227
     30 C           4.5163    2.2542    5.1199 C.ar    1  LIG1        0.1702
     31 C          -0.4064    7.4545    5.6800 C.ar    1  LIG1       -0.0252
     32 C           0.3524    7.7042    7.9350 C.ar    1  LIG1       -0.0328
     33 C           0.7215    3.8136    3.1585 C.3     1  LIG1        0.1143
     34 C           5.1793    1.5089    6.1030 C.ar    1  LIG1        0.1621
     35 C          -1.2030    8.5832    5.8436 C.ar    1  LIG1        0.0708
     36 C           4.1128    1.6239    3.9381 C.ar    1  LIG1       -0.0157
     37 C          -0.4823    8.8074    8.0279 C.ar    1  LIG1        0.0289
     38 C          -0.2325    2.6826    3.5534 C.3     1  LIG1        0.0783
     39 C           5.3268    0.1247    5.9438 C.ar    1  LIG1       -0.0163
     40 C           4.2650    0.2458    3.7799 C.ar    1  LIG1       -0.0581
     41 C           4.8651   -0.5048    4.7865 C.ar    1  LIG1       -0.0581
     42 C          -1.9863    9.0990    4.7155 C.ar    1  LIG1        0.0207
     43 C           6.9824    1.7977    7.5683 C.3     1  LIG1        0.0790
     44 H          -1.4963    2.2152    4.9605 H       1  LIG1        0.2095
     45 H           4.2823    5.1024    8.7059 H       1  LIG1        0.1754
     46 H          -3.8086   10.9354    3.1057 H       1  LIG1        0.1651
     47 H           9.1199    8.2596   12.2241 H       1  LIG1        0.0344
     48 H           6.4870    7.8437   13.7425 H       1  LIG1        0.0235
     49 H           7.0201    9.3486   12.9795 H       1  LIG1        0.0235
     50 H           7.9149    8.6983   14.3556 H       1  LIG1        0.0235
     51 H           8.0833    5.7620   13.6423 H       1  LIG1        0.0235
     52 H           9.4720    6.7570   14.0891 H       1  LIG1        0.0235
     53 H           9.5086    5.8272   12.5859 H       1  LIG1        0.0235
     54 H           7.6459    9.3096   10.4478 H       1  LIG1        0.0622
     55 H           7.1837    5.1693   11.5819 H       1  LIG1        0.0833
     56 H           6.5771    8.7496    8.2753 H       1  LIG1        0.0653
     57 H          -0.3858    6.9471    4.7174 H       1  LIG1        0.0646
     58 H           0.9634    7.4173    8.7848 H       1  LIG1        0.0640
     59 H           0.9351    3.7105    2.0886 H       1  LIG1        0.0720
     60 H           0.2676    4.8028    3.2861 H       1  LIG1        0.0720
     61 H           3.7054    2.2047    3.1173 H       1  LIG1        0.0655
     62 H          -0.5432    9.3850    8.9464 H       1  LIG1        0.0830
     63 H          -1.0141    2.5821    2.7931 H       1  LIG1        0.0591
     64 H           0.3034    1.7330    3.6487 H       1  LIG1        0.0591
     65 H           5.8076   -0.4756    6.7097 H       1  LIG1        0.0655
     66 H           3.9328   -0.2344    2.8630 H       1  LIG1        0.0619
     67 H           4.9944   -1.5771    4.6615 H       1  LIG1        0.0619
     68 H           7.4122    2.6128    8.1573 H       1  LIG1        0.0660
     69 H           7.6247    1.6426    6.6931 H       1  LIG1        0.0660
     70 H           6.9682    0.9008    8.1967 H       1  LIG1        0.0660
@<TRIPOS>BOND
     1     1    21    1
     2     1     8    1
     3     1     4    2
     4     1     3    2
     5     2    26    1
     6     2    30    1
     7     5    27    1
     8     5    33    1
     9     6    34    1
    10     6    43    1
    11     7    38    1
    12     8    25    1
    13     9    23   ar
    14     9    21   ar
    15    10    25   ar
    16    10    28   ar
    17    11    27   ar
    18    11    28   ar
    19    12    37   ar
    20    12    35   ar
    21    13    15   ar
    22    13    42   ar
    23    14    42   ar
    24    14    16   ar
    25    15    16   ar
    26    17    18    1
    27    17    20    1
    28    17    19    1
    29    18    23   ar
    30    18    22   ar
    31    21    24   ar
    32    22    24   ar
    33    25    26   ar
    34    26    27   ar
    35    28    29    1
    36    29    31   ar
    37    29    32   ar
    38    30    36   ar
    39    30    34   ar
    40    31    35   ar
    41    32    37   ar
    42    33    38    1
    43    34    39   ar
    44    35    42    1
    45    36    40   ar
    46    39    41   ar
    47    40    41   ar
    48     7    44    1
    49     8    45    1
    50    15    46    1
    51    17    47    1
    52    19    48    1
    53    19    49    1
    54    19    50    1
    55    20    51    1
    56    20    52    1
    57    20    53    1
    58    22    54    1
    59    23    55    1
    60    24    56    1
    61    31    57    1
    62    32    58    1
    63    33    59    1
    64    33    60    1
    65    36    61    1
    66    37    62    1
    67    38    63    1
    68    38    64    1
    69    39    65    1
    70    40    66    1
    71    41    67    1
    72    43    68    1
    73    43    69    1
    74    43    70    1
@<TRIPOS>MOLECULE
9939443
 70 74 0 0 0
SMALL
GASTEIGER

@<TRIPOS>ATOM
      1 S           5.6380    6.2699    7.2735 S.O2    1  LIG1        0.0908
      2 O           4.2418    3.1130    5.6564 O.3     1  LIG1       -0.4435
      3 O           4.9470    7.3157    6.5446 O.2     1  LIG1       -0.1484
      4 O           6.8006    5.5905    6.7343 O.2     1  LIG1       -0.1484
      5 O           1.5168    3.0706    4.4057 O.3     1  LIG1       -0.4715
      6 O           4.1763    5.3592    3.8246 O.3     1  LIG1       -0.4914
      7 O           0.1236    1.0048    6.1079 O.3     1  LIG1       -0.3917
      8 N           4.5821    4.9883    7.6694 N.pl3   1  LIG1       -0.1950
      9 N           7.2860    7.5418    8.9252 N.ar    1  LIG1       -0.2351
     10 N           2.4898    5.8830    7.2087 N.ar    1  LIG1       -0.2073
     11 N           1.0660    4.9329    5.5638 N.ar    1  LIG1       -0.1899
     12 N          -1.2621    9.2651    6.7413 N.ar    1  LIG1       -0.2552
     13 N          -3.5114    9.4455    4.9502 N.ar    1  LIG1       -0.5621
     14 N          -3.1962    7.3094    4.2787 N.ar    1  LIG1       -0.1535
     15 N          -4.4161    9.0105    4.0665 N.ar    1  LIG1       -0.3597
     16 N          -4.2719    7.7511    3.6435 N.ar    1  LIG1       -0.0878
     17 C           7.4534    8.5671   12.5728 C.3     1  LIG1       -0.0201
     18 C           6.9108    7.9488   11.2966 C.ar    1  LIG1       -0.0266
     19 C           7.2803   10.0894   12.5455 C.3     1  LIG1       -0.0586
     20 C           6.8610    8.0020   13.8681 C.3     1  LIG1       -0.0586
     21 C           6.0746    6.9304    8.8867 C.ar    1  LIG1        0.1969
     22 C           5.6715    7.3020   11.2046 C.ar    1  LIG1       -0.0535
     23 C           7.6643    8.0386   10.1228 C.ar    1  LIG1        0.0332
     24 C           5.2391    6.7811    9.9833 C.ar    1  LIG1       -0.0160
     25 C           3.3930    4.9495    6.8810 C.ar    1  LIG1        0.1882
     26 C           3.2228    3.9819    5.9058 C.ar    1  LIG1        0.2307
     27 C           1.9769    3.9699    5.3180 C.ar    1  LIG1        0.2641
     28 C           1.3729    5.8807    6.4661 C.ar    1  LIG1        0.1659
     29 C           0.4490    7.0234    6.5925 C.ar    1  LIG1        0.0227
     30 C           4.9231    3.1906    4.4510 C.ar    1  LIG1        0.1702
     31 C          -0.7244    7.1056    5.8212 C.ar    1  LIG1       -0.0252
     32 C           0.7280    8.1021    7.4425 C.ar    1  LIG1       -0.0328
     33 C           1.8488    1.6875    4.5429 C.3     1  LIG1        0.1143
     34 C           4.8884    4.2360    3.5090 C.ar    1  LIG1        0.1621
     35 C          -1.5432    8.2295    5.9092 C.ar    1  LIG1        0.0708
     36 C           5.7134    2.0566    4.2037 C.ar    1  LIG1       -0.0157
     37 C          -0.1409    9.1788    7.4828 C.ar    1  LIG1        0.0289
     38 C           1.5298    1.0576    5.9005 C.3     1  LIG1        0.0783
     39 C           5.6090    4.0929    2.3152 C.ar    1  LIG1       -0.0163
     40 C           6.4277    1.9306    3.0151 C.ar    1  LIG1       -0.0581
     41 C           6.3661    2.9447    2.0668 C.ar    1  LIG1       -0.0581
     42 C          -2.7402    8.3454    5.0708 C.ar    1  LIG1        0.0207
     43 C           3.9365    6.3156    2.8001 C.3     1  LIG1        0.0790
     44 H          -0.0279    0.6337    6.9939 H       1  LIG1        0.2095
     45 H           5.1407    4.1447    7.5179 H       1  LIG1        0.1754
     46 H          -5.1695    9.6032    3.7296 H       1  LIG1        0.1651
     47 H           8.5299    8.3484   12.6077 H       1  LIG1        0.0344
     48 H           6.2226   10.3698   12.4887 H       1  LIG1        0.0235
     49 H           7.7885   10.5335   11.6825 H       1  LIG1        0.0235
     50 H           7.7042   10.5454   13.4470 H       1  LIG1        0.0235
     51 H           5.8005    8.2546   13.9765 H       1  LIG1        0.0235
     52 H           7.3844    8.4128   14.7390 H       1  LIG1        0.0235
     53 H           6.9590    6.9117   13.9060 H       1  LIG1        0.0235
     54 H           5.0250    7.1983   12.0718 H       1  LIG1        0.0622
     55 H           8.6318    8.5369   10.1150 H       1  LIG1        0.0833
     56 H           4.2780    6.2848    9.9050 H       1  LIG1        0.0653
     57 H          -0.9802    6.3015    5.1332 H       1  LIG1        0.0646
     58 H           1.6267    8.1188    8.0526 H       1  LIG1        0.0640
     59 H           2.8889    1.5162    4.2645 H       1  LIG1        0.0720
     60 H           1.2504    1.1730    3.7814 H       1  LIG1        0.0720
     61 H           5.7634    1.2582    4.9397 H       1  LIG1        0.0655
     62 H           0.0560   10.0328    8.1246 H       1  LIG1        0.0830
     63 H           1.9096    0.0304    5.9229 H       1  LIG1        0.0591
     64 H           1.9758    1.6104    6.7310 H       1  LIG1        0.0591
     65 H           5.6138    4.8693    1.5566 H       1  LIG1        0.0655
     66 H           7.0303    1.0452    2.8297 H       1  LIG1        0.0619
     67 H           6.9200    2.8528    1.1354 H       1  LIG1        0.0619
     68 H           3.2593    7.0742    3.2038 H       1  LIG1        0.0660
     69 H           3.4439    5.8568    1.9359 H       1  LIG1        0.0660
     70 H           4.8638    6.8177    2.5077 H       1  LIG1        0.0660
@<TRIPOS>BOND
     1     1    21    1
     2     1     8    1
     3     1     4    2
     4     1     3    2
     5     2    26    1
     6     2    30    1
     7     5    27    1
     8     5    33    1
     9     6    34    1
    10     6    43    1
    11     7    38    1
    12     8    25    1
    13     9    23   ar
    14     9    21   ar
    15    10    25   ar
    16    10    28   ar
    17    11    27   ar
    18    11    28   ar
    19    12    37   ar
    20    12    35   ar
    21    13    15   ar
    22    13    42   ar
    23    14    42   ar
    24    14    16   ar
    25    15    16   ar
    26    17    18    1
    27    17    20    1
    28    17    19    1
    29    18    23   ar
    30    18    22   ar
    31    21    24   ar
    32    22    24   ar
    33    25    26   ar
    34    26    27   ar
    35    28    29    1
    36    29    31   ar
    37    29    32   ar
    38    30    36   ar
    39    30    34   ar
    40    31    35   ar
    41    32    37   ar
    42    33    38    1
    43    34    39   ar
    44    35    42    1
    45    36    40   ar
    46    39    41   ar
    47    40    41   ar
    48     7    44    1
    49     8    45    1
    50    15    46    1
    51    17    47    1
    52    19    48    1
    53    19    49    1
    54    19    50    1
    55    20    51    1
    56    20    52    1
    57    20    53    1
    58    22    54    1
    59    23    55    1
    60    24    56    1
    61    31    57    1
    62    32    58    1
    63    33    59    1
    64    33    60    1
    65    36    61    1
    66    37    62    1
    67    38    63    1
    68    38    64    1
    69    39    65    1
    70    40    66    1
    71    41    67    1
    72    43    68    1
    73    43    69    1
    74    43    70    1
@<TRIPOS>MOLECULE
9939443
 70 74 0 0 0
SMALL
GASTEIGER

@<TRIPOS>ATOM
      1 S           5.7855    6.1551    7.0758 S.O2    1  LIG1        0.0908
      2 O           4.4095    3.5745    5.3566 O.3     1  LIG1       -0.4435
      3 O           5.9503    5.8913    5.6552 O.2     1  LIG1       -0.1484
      4 O           6.9146    6.0277    7.9791 O.2     1  LIG1       -0.1484
      5 O           1.7113    3.2552    4.2699 O.3     1  LIG1       -0.4715
      6 O           5.8525    2.0279    7.1157 O.3     1  LIG1       -0.4914
      7 O           0.5051    0.9968    5.7982 O.3     1  LIG1       -0.3917
      8 N           4.5276    5.2156    7.6966 N.pl3   1  LIG1       -0.1950
      9 N           4.6459    8.1248    8.4581 N.ar    1  LIG1       -0.2351
     10 N           2.4225    5.9638    7.2492 N.ar    1  LIG1       -0.2073
     11 N           1.0370    5.0100    5.5944 N.ar    1  LIG1       -0.1899
     12 N          -1.6328    9.0443    6.9532 N.ar    1  LIG1       -0.2552
     13 N          -1.1601   11.1632    8.8395 N.ar    1  LIG1       -0.5621
     14 N           0.1875    9.7983   10.0377 N.ar    1  LIG1       -0.1535
     15 N          -0.8095   11.6548   10.0322 N.ar    1  LIG1       -0.3597
     16 N          -0.0051   10.8845   10.7732 N.ar    1  LIG1       -0.0878
     17 C           3.8305   11.8260    7.8228 C.3     1  LIG1       -0.0201
     18 C           4.2747   10.3857    7.6261 C.ar    1  LIG1       -0.0266
     19 C           3.0640   12.1031    9.1173 C.3     1  LIG1       -0.0586
     20 C           5.0265   12.7829    7.7379 C.3     1  LIG1       -0.0586
     21 C           5.1732    7.8310    7.2419 C.ar    1  LIG1        0.1969
     22 C           4.7834    9.9976    6.3755 C.ar    1  LIG1       -0.0535
     23 C           4.2212    9.4037    8.6194 C.ar    1  LIG1        0.0332
     24 C           5.2490    8.7052    6.1718 C.ar    1  LIG1       -0.0160
     25 C           3.3762    5.0885    6.8733 C.ar    1  LIG1        0.1882
     26 C           3.2719    4.1659    5.8388 C.ar    1  LIG1        0.2307
     27 C           2.0085    4.1250    5.2867 C.ar    1  LIG1        0.2641
     28 C           1.2871    5.9180    6.5451 C.ar    1  LIG1        0.1659
     29 C           0.2780    6.9788    6.7268 C.ar    1  LIG1        0.0227
     30 C           4.4700    2.2169    5.1670 C.ar    1  LIG1        0.1702
     31 C           0.3723    7.9473    7.7385 C.ar    1  LIG1       -0.0252
     32 C          -0.8151    7.0788    5.8482 C.ar    1  LIG1       -0.0328
     33 C           0.3392    2.8273    4.2282 C.3     1  LIG1        0.1143
     34 C           5.2328    1.4389    6.0431 C.ar    1  LIG1        0.1621
     35 C          -0.5916    8.9537    7.8215 C.ar    1  LIG1        0.0708
     36 C           4.0308    1.6406    3.9736 C.ar    1  LIG1       -0.0157
     37 C          -1.7249    8.1086    5.9945 C.ar    1  LIG1        0.0289
     38 C           0.2724    1.3148    4.4280 C.3     1  LIG1        0.0783
     39 C           5.4089    0.0706    5.8151 C.ar    1  LIG1       -0.0163
     40 C           4.2097    0.2754    3.7337 C.ar    1  LIG1       -0.0581
     41 C           4.8840   -0.5137    4.6632 C.ar    1  LIG1       -0.0581
     42 C          -0.5322    9.9698    8.8728 C.ar    1  LIG1        0.0207
     43 C           7.2487    2.1884    6.8379 C.3     1  LIG1        0.0790
     44 H           0.6190    0.0325    5.8553 H       1  LIG1        0.2095
     45 H           4.2404    5.6596    8.5767 H       1  LIG1        0.1754
     46 H          -1.1267   12.5645   10.3543 H       1  LIG1        0.1651
     47 H           3.1443   12.0618    6.9976 H       1  LIG1        0.0344
     48 H           3.6907   11.9551   10.0035 H       1  LIG1        0.0235
     49 H           2.1967   11.4460    9.1974 H       1  LIG1        0.0235
     50 H           2.6990   13.1361    9.1378 H       1  LIG1        0.0235
     51 H           5.7618   12.5699    8.5220 H       1  LIG1        0.0235
     52 H           4.7009   13.8228    7.8510 H       1  LIG1        0.0235
     53 H           5.5389   12.7064    6.7730 H       1  LIG1        0.0235
     54 H           4.8349   10.7112    5.5557 H       1  LIG1        0.0622
     55 H           3.8306    9.6145    9.6126 H       1  LIG1        0.0833
     56 H           5.6670    8.4020    5.2185 H       1  LIG1        0.0653
     57 H           1.1971    7.9209    8.4467 H       1  LIG1        0.0646
     58 H          -0.9538    6.3663    5.0391 H       1  LIG1        0.0640
     59 H          -0.0402    3.0821    3.2334 H       1  LIG1        0.0720
     60 H          -0.3072    3.3056    4.9728 H       1  LIG1        0.0720
     61 H           3.5711    2.2548    3.2056 H       1  LIG1        0.0655
     62 H          -2.5717    8.2101    5.3218 H       1  LIG1        0.0830
     63 H          -0.7224    0.9431    4.1641 H       1  LIG1        0.0591
     64 H           1.0248    0.8036    3.8213 H       1  LIG1        0.0591
     65 H           5.9808   -0.5301    6.5163 H       1  LIG1        0.0655
     66 H           3.8427   -0.1634    2.8095 H       1  LIG1        0.0619
     67 H           5.0351   -1.5727    4.4720 H       1  LIG1        0.0619
     68 H           7.6459    2.9531    7.5112 H       1  LIG1        0.0660
     69 H           7.4365    2.5160    5.8074 H       1  LIG1        0.0660
     70 H           7.7825    1.2517    7.0336 H       1  LIG1        0.0660
@<TRIPOS>BOND
     1     1    21    1
     2     1     8    1
     3     1     4    2
     4     1     3    2
     5     2    26    1
     6     2    30    1
     7     5    27    1
     8     5    33    1
     9     6    34    1
    10     6    43    1
    11     7    38    1
    12     8    25    1
    13     9    23   ar
    14     9    21   ar
    15    10    25   ar
    16    10    28   ar
    17    11    27   ar
    18    11    28   ar
    19    12    37   ar
    20    12    35   ar
    21    13    15   ar
    22    13    42   ar
    23    14    42   ar
    24    14    16   ar
    25    15    16   ar
    26    17    18    1
    27    17    20    1
    28    17    19    1
    29    18    23   ar
    30    18    22   ar
    31    21    24   ar
    32    22    24   ar
    33    25    26   ar
    34    26    27   ar
    35    28    29    1
    36    29    31   ar
    37    29    32   ar
    38    30    36   ar
    39    30    34   ar
    40    31    35   ar
    41    32    37   ar
    42    33    38    1
    43    34    39   ar
    44    35    42    1
    45    36    40   ar
    46    39    41   ar
    47    40    41   ar
    48     7    44    1
    49     8    45    1
    50    15    46    1
    51    17    47    1
    52    19    48    1
    53    19    49    1
    54    19    50    1
    55    20    51    1
    56    20    52    1
    57    20    53    1
    58    22    54    1
    59    23    55    1
    60    24    56    1
    61    31    57    1
    62    32    58    1
    63    33    59    1
    64    33    60    1
    65    36    61    1
    66    37    62    1
    67    38    63    1
    68    38    64    1
    69    39    65    1
    70    40    66    1
    71    41    67    1
    72    43    68    1
    73    43    69    1
    74    43    70    1
@<TRIPOS>MOLECULE
9939443
 70 74 0 0 0
SMALL
GASTEIGER

@<TRIPOS>ATOM
      1 S           3.9409    3.8796    9.1015 S.O2    1  LIG1        0.0908
      2 O           4.5379    3.3021    5.6831 O.3     1  LIG1       -0.4435
      3 O           3.3343    2.7278    8.4598 O.2     1  LIG1       -0.1484
      4 O           3.2144    4.6368   10.1008 O.2     1  LIG1       -0.1484
      5 O           2.1637    3.4084    3.9784 O.3     1  LIG1       -0.4715
      6 O           5.6532    0.9490    5.4775 O.3     1  LIG1       -0.4914
      7 O           0.9623    1.2243    2.3478 O.3     1  LIG1       -0.3917
      8 N           4.4630    4.9849    7.9096 N.pl3   1  LIG1       -0.1950
      9 N           6.3363    4.3424   10.1579 N.ar    1  LIG1       -0.2351
     10 N           2.5880    6.0214    7.0831 N.ar    1  LIG1       -0.2073
     11 N           1.4217    5.2112    5.1752 N.ar    1  LIG1       -0.1899
     12 N          -1.3525    9.1504    6.7671 N.ar    1  LIG1       -0.2552
     13 N          -1.9934    8.5958    3.1921 N.ar    1  LIG1       -0.5621
     14 N          -2.9320   10.0825    4.6161 N.ar    1  LIG1       -0.1535
     15 N          -2.9145    9.3906    2.6297 N.ar    1  LIG1       -0.3597
     16 N          -3.4932   10.2869    3.4319 N.ar    1  LIG1       -0.0878
     17 C           9.0886    2.2351   11.7983 C.3     1  LIG1       -0.0201
     18 C           7.8147    2.6393   11.0767 C.ar    1  LIG1       -0.0266
     19 C          10.0507    1.5162   10.8465 C.3     1  LIG1       -0.0586
     20 C           9.8242    3.3779   12.5065 C.3     1  LIG1       -0.0586
     21 C           5.4753    3.3386    9.8407 C.ar    1  LIG1        0.1969
     22 C           6.8954    1.6469   10.6975 C.ar    1  LIG1       -0.0535
     23 C           7.4825    3.9605   10.7678 C.ar    1  LIG1        0.0332
     24 C           5.7064    1.9927   10.0648 C.ar    1  LIG1       -0.0160
     25 C           3.5180    5.0849    6.8514 C.ar    1  LIG1        0.1882
     26 C           3.5183    4.2029    5.7902 C.ar    1  LIG1        0.2307
     27 C           2.3821    4.2776    5.0173 C.ar    1  LIG1        0.2641
     28 C           1.5698    6.0582    6.2085 C.ar    1  LIG1        0.1659
     29 C           0.5514    7.1021    6.4015 C.ar    1  LIG1        0.0227
     30 C           5.0885    2.9979    4.4565 C.ar    1  LIG1        0.1702
     31 C          -0.2696    7.5324    5.3474 C.ar    1  LIG1       -0.0252
     32 C           0.3766    7.7256    7.6457 C.ar    1  LIG1       -0.0328
     33 C           1.6713    2.1538    4.4759 C.3     1  LIG1        0.1143
     34 C           5.6963    1.7320    4.3507 C.ar    1  LIG1        0.1621
     35 C          -1.1939    8.5539    5.5573 C.ar    1  LIG1        0.0708
     36 C           5.1198    3.8810    3.3711 C.ar    1  LIG1       -0.0157
     37 C          -0.5741    8.7218    7.7782 C.ar    1  LIG1        0.0289
     38 C           1.9046    1.0847    3.4095 C.3     1  LIG1        0.0783
     39 C           6.2699    1.3455    3.1358 C.ar    1  LIG1       -0.0163
     40 C           5.6861    3.4808    2.1603 C.ar    1  LIG1       -0.0581
     41 C           6.2544    2.2146    2.0420 C.ar    1  LIG1       -0.0581
     42 C          -2.0259    9.0544    4.4617 C.ar    1  LIG1        0.0207
     43 C           6.4274   -0.2424    5.4729 C.3     1  LIG1        0.0790
     44 H           1.2575    0.6400    1.6295 H       1  LIG1        0.2095
     45 H           4.5142    5.8902    8.3796 H       1  LIG1        0.1754
     46 H          -3.1612    9.3211    1.6465 H       1  LIG1        0.1651
     47 H           8.7963    1.5252   12.5848 H       1  LIG1        0.0344
     48 H          10.3546    2.1681   10.0200 H       1  LIG1        0.0235
     49 H           9.5913    0.6212   10.4120 H       1  LIG1        0.0235
     50 H          10.9532    1.1953   11.3768 H       1  LIG1        0.0235
     51 H          10.2305    4.1035   11.7929 H       1  LIG1        0.0235
     52 H          10.6642    2.9883   13.0924 H       1  LIG1        0.0235
     53 H           9.1597    3.9102   13.1960 H       1  LIG1        0.0235
     54 H           7.0994    0.5987   10.9060 H       1  LIG1        0.0622
     55 H           8.1405    4.7890   11.0142 H       1  LIG1        0.0833
     56 H           4.9842    1.2365    9.7762 H       1  LIG1        0.0653
     57 H          -0.1733    7.0815    4.3611 H       1  LIG1        0.0646
     58 H           0.9714    7.4362    8.5079 H       1  LIG1        0.0640
     59 H           0.6013    2.2578    4.6888 H       1  LIG1        0.0720
     60 H           2.1977    1.8501    5.3897 H       1  LIG1        0.0720
     61 H           4.6954    4.8779    3.4391 H       1  LIG1        0.0655
     62 H          -0.7343    9.2192    8.7312 H       1  LIG1        0.0830
     63 H           2.9078    1.1710    2.9830 H       1  LIG1        0.0591
     64 H           1.7767    0.0872    3.8381 H       1  LIG1        0.0591
     65 H           6.7297    0.3719    3.0037 H       1  LIG1        0.0655
     66 H           5.6794    4.1564    1.3094 H       1  LIG1        0.0619
     67 H           6.6926    1.9046    1.0959 H       1  LIG1        0.0619
     68 H           6.3817   -0.6729    6.4773 H       1  LIG1        0.0660
     69 H           7.4792   -0.0368    5.2478 H       1  LIG1        0.0660
     70 H           6.0085   -0.9747    4.7759 H       1  LIG1        0.0660
@<TRIPOS>BOND
     1     1    21    1
     2     1     8    1
     3     1     4    2
     4     1     3    2
     5     2    26    1
     6     2    30    1
     7     5    27    1
     8     5    33    1
     9     6    34    1
    10     6    43    1
    11     7    38    1
    12     8    25    1
    13     9    23   ar
    14     9    21   ar
    15    10    25   ar
    16    10    28   ar
    17    11    27   ar
    18    11    28   ar
    19    12    37   ar
    20    12    35   ar
    21    13    15   ar
    22    13    42   ar
    23    14    42   ar
    24    14    16   ar
    25    15    16   ar
    26    17    18    1
    27    17    20    1
    28    17    19    1
    29    18    23   ar
    30    18    22   ar
    31    21    24   ar
    32    22    24   ar
    33    25    26   ar
    34    26    27   ar
    35    28    29    1
    36    29    31   ar
    37    29    32   ar
    38    30    36   ar
    39    30    34   ar
    40    31    35   ar
    41    32    37   ar
    42    33    38    1
    43    34    39   ar
    44    35    42    1
    45    36    40   ar
    46    39    41   ar
    47    40    41   ar
    48     7    44    1
    49     8    45    1
    50    15    46    1
    51    17    47    1
    52    19    48    1
    53    19    49    1
    54    19    50    1
    55    20    51    1
    56    20    52    1
    57    20    53    1
    58    22    54    1
    59    23    55    1
    60    24    56    1
    61    31    57    1
    62    32    58    1
    63    33    59    1
    64    33    60    1
    65    36    61    1
    66    37    62    1
    67    38    63    1
    68    38    64    1
    69    39    65    1
    70    40    66    1
    71    41    67    1
    72    43    68    1
    73    43    69    1
    74    43    70    1
@<TRIPOS>MOLECULE
9939443
 70 74 0 0 0
SMALL
GASTEIGER

@<TRIPOS>ATOM
      1 S           5.7666    6.0871    7.2487 S.O2    1  LIG1        0.0908
      2 O           4.5791    3.6507    5.1260 O.3     1  LIG1       -0.4435
      3 O           5.3286    6.9142    6.1407 O.2     1  LIG1       -0.1484
      4 O           7.0420    5.3989    7.2248 O.2     1  LIG1       -0.1484
      5 O           2.1493    3.8133    3.6578 O.3     1  LIG1       -0.4715
      6 O           5.8890    2.2614    7.1326 O.3     1  LIG1       -0.4914
      7 O           0.8948    1.4033    2.4389 O.3     1  LIG1       -0.3917
      8 N           4.5610    4.9714    7.6832 N.pl3   1  LIG1       -0.1950
      9 N           4.8343    6.8652    9.6226 N.ar    1  LIG1       -0.2351
     10 N           2.4555    5.7406    7.2575 N.ar    1  LIG1       -0.2073
     11 N           1.2471    5.1829    5.2982 N.ar    1  LIG1       -0.1899
     12 N          -1.5876    8.8526    7.2032 N.ar    1  LIG1       -0.2552
     13 N           0.8898   10.1708    9.5703 N.ar    1  LIG1       -0.5621
     14 N          -1.1204   11.0043    8.9462 N.ar    1  LIG1       -0.1535
     15 N           0.5653   11.3321   10.1584 N.ar    1  LIG1       -0.3597
     16 N          -0.6142   11.8580    9.8238 N.ar    1  LIG1       -0.0878
     17 C           5.8567    9.2744   12.3744 C.3     1  LIG1       -0.0201
     18 C           5.8693    8.5579   11.0373 C.ar    1  LIG1       -0.0266
     19 C           6.6770    8.4932   13.4043 C.3     1  LIG1       -0.0586
     20 C           6.3362   10.7284   12.3088 C.3     1  LIG1       -0.0586
     21 C           5.8037    7.1416    8.7035 C.ar    1  LIG1        0.1969
     22 C           6.8527    8.7759   10.0604 C.ar    1  LIG1       -0.0535
     23 C           4.8946    7.5927   10.7605 C.ar    1  LIG1        0.0332
     24 C           6.8249    8.0590    8.8669 C.ar    1  LIG1       -0.0160
     25 C           3.4484    4.9487    6.8047 C.ar    1  LIG1        0.1882
     26 C           3.4462    4.2539    5.6071 C.ar    1  LIG1        0.2307
     27 C           2.2730    4.4025    4.8969 C.ar    1  LIG1        0.2641
     28 C           1.3935    5.8542    6.4500 C.ar    1  LIG1        0.1659
     29 C           0.3580    6.8573    6.7602 C.ar    1  LIG1        0.0227
     30 C           4.6051    2.2717    5.1179 C.ar    1  LIG1        0.1702
     31 C           0.5695    7.8863    7.6922 C.ar    1  LIG1       -0.0252
     32 C          -0.8659    6.8611    6.0714 C.ar    1  LIG1       -0.0328
     33 C           0.7862    3.6938    3.2239 C.3     1  LIG1        0.1143
     34 C           5.3141    1.5697    6.0997 C.ar    1  LIG1        0.1621
     35 C          -0.4093    8.8636    7.8781 C.ar    1  LIG1        0.0708
     36 C           4.1107    1.5727    4.0132 C.ar    1  LIG1       -0.0157
     37 C          -1.7899    7.8584    6.3214 C.ar    1  LIG1        0.0289
     38 C           0.7254    2.7567    2.0202 C.3     1  LIG1        0.0783
     39 C           5.4138    0.1741    6.0334 C.ar    1  LIG1       -0.0163
     40 C           4.2204    0.1825    3.9403 C.ar    1  LIG1       -0.0581
     41 C           4.8636   -0.5186    4.9554 C.ar    1  LIG1       -0.0581
     42 C          -0.2005    9.9857    8.7955 C.ar    1  LIG1        0.0207
     43 C           7.2974    2.0333    7.2070 C.3     1  LIG1        0.0790
     44 H           0.8375    0.8485    1.6427 H       1  LIG1        0.2095
     45 H           4.2297    5.2424    8.6170 H       1  LIG1        0.1754
     46 H           1.1796   11.7931   10.8229 H       1  LIG1        0.1651
     47 H           4.8166    9.3094   12.7265 H       1  LIG1        0.0344
     48 H           7.7290    8.4181   13.1067 H       1  LIG1        0.0235
     49 H           6.2927    7.4742   13.5252 H       1  LIG1        0.0235
     50 H           6.6375    8.9815   14.3842 H       1  LIG1        0.0235
     51 H           7.4051   10.7993   12.0803 H       1  LIG1        0.0235
     52 H           6.1770   11.2268   13.2716 H       1  LIG1        0.0235
     53 H           5.7872   11.2911   11.5460 H       1  LIG1        0.0235
     54 H           7.6555    9.4898   10.2216 H       1  LIG1        0.0622
     55 H           4.1134    7.3649   11.4834 H       1  LIG1        0.0833
     56 H           7.5835    8.1986    8.1043 H       1  LIG1        0.0653
     57 H           1.5064    7.9443    8.2418 H       1  LIG1        0.0646
     58 H          -1.0944    6.1020    5.3283 H       1  LIG1        0.0640
     59 H           0.4204    4.6824    2.9228 H       1  LIG1        0.0720
     60 H           0.1621    3.2822    4.0279 H       1  LIG1        0.0720
     61 H           3.6548    2.0986    3.1822 H       1  LIG1        0.0655
     62 H          -2.7387    7.8901    5.7929 H       1  LIG1        0.0830
     63 H          -0.2522    2.8339    1.5347 H       1  LIG1        0.0591
     64 H           1.5149    2.9904    1.2999 H       1  LIG1        0.0591
     65 H           5.9237   -0.3804    6.8152 H       1  LIG1        0.0655
     66 H           3.8091   -0.3457    3.0841 H       1  LIG1        0.0619
     67 H           4.9513   -1.6002    4.8992 H       1  LIG1        0.0619
     68 H           7.7421    2.8340    7.8041 H       1  LIG1        0.0660
     69 H           7.7695    2.0466    6.2172 H       1  LIG1        0.0660
     70 H           7.5073    1.0871    7.7165 H       1  LIG1        0.0660
@<TRIPOS>BOND
     1     1    21    1
     2     1     8    1
     3     1     4    2
     4     1     3    2
     5     2    26    1
     6     2    30    1
     7     5    27    1
     8     5    33    1
     9     6    34    1
    10     6    43    1
    11     7    38    1
    12     8    25    1
    13     9    23   ar
    14     9    21   ar
    15    10    25   ar
    16    10    28   ar
    17    11    27   ar
    18    11    28   ar
    19    12    37   ar
    20    12    35   ar
    21    13    15   ar
    22    13    42   ar
    23    14    42   ar
    24    14    16   ar
    25    15    16   ar
    26    17    18    1
    27    17    20    1
    28    17    19    1
    29    18    23   ar
    30    18    22   ar
    31    21    24   ar
    32    22    24   ar
    33    25    26   ar
    34    26    27   ar
    35    28    29    1
    36    29    31   ar
    37    29    32   ar
    38    30    36   ar
    39    30    34   ar
    40    31    35   ar
    41    32    37   ar
    42    33    38    1
    43    34    39   ar
    44    35    42    1
    45    36    40   ar
    46    39    41   ar
    47    40    41   ar
    48     7    44    1
    49     8    45    1
    50    15    46    1
    51    17    47    1
    52    19    48    1
    53    19    49    1
    54    19    50    1
    55    20    51    1
    56    20    52    1
    57    20    53    1
    58    22    54    1
    59    23    55    1
    60    24    56    1
    61    31    57    1
    62    32    58    1
    63    33    59    1
    64    33    60    1
    65    36    61    1
    66    37    62    1
    67    38    63    1
    68    38    64    1
    69    39    65    1
    70    40    66    1
    71    41    67    1
    72    43    68    1
    73    43    69    1
    74    43    70    1
@<TRIPOS>MOLECULE
9939443
 70 74 0 0 0
SMALL
GASTEIGER

@<TRIPOS>ATOM
      1 S           5.6735    6.1840    7.3279 S.O2    1  LIG1        0.0908
      2 O           4.4996    3.3768    5.6573 O.3     1  LIG1       -0.4435
      3 O           5.0335    7.3661    6.7823 O.2     1  LIG1       -0.1484
      4 O           6.6674    5.4464    6.5810 O.2     1  LIG1       -0.1484
      5 O           1.9919    3.2682    4.1508 O.3     1  LIG1       -0.4715
      6 O           4.4393    5.5409    3.7580 O.3     1  LIG1       -0.4914
      7 O           1.8987    0.8763    2.4417 O.3     1  LIG1       -0.3917
      8 N           4.4702    5.1200    7.8834 N.pl3   1  LIG1       -0.1950
      9 N           6.5676    5.6992    9.7911 N.ar    1  LIG1       -0.2351
     10 N           2.3682    5.7996    7.3245 N.ar    1  LIG1       -0.2073
     11 N           1.1888    4.9690    5.4344 N.ar    1  LIG1       -0.1899
     12 N          -1.3884    9.1061    6.8585 N.ar    1  LIG1       -0.2552
     13 N          -2.8065   10.0555    4.5464 N.ar    1  LIG1       -0.5621
     14 N          -1.9694    8.3760    3.2851 N.ar    1  LIG1       -0.1535
     15 N          -3.2023   10.0817    3.2693 N.ar    1  LIG1       -0.3597
     16 N          -2.7351    9.1046    2.4859 N.ar    1  LIG1       -0.0878
     17 C           8.2888    7.6731   12.5647 C.3     1  LIG1       -0.0201
     18 C           7.5809    7.3415   11.2668 C.ar    1  LIG1       -0.0266
     19 C           7.5395    7.1605   13.7974 C.3     1  LIG1       -0.0586
     20 C           9.7245    7.1421   12.5443 C.3     1  LIG1       -0.0586
     21 C           6.4394    6.6934    8.8716 C.ar    1  LIG1        0.1969
     22 C           7.3622    8.3395   10.3057 C.ar    1  LIG1       -0.0535
     23 C           7.1651    6.0465   10.9517 C.ar    1  LIG1        0.0332
     24 C           6.7824    8.0176    9.0821 C.ar    1  LIG1       -0.0160
     25 C           3.3800    4.9841    6.9922 C.ar    1  LIG1        0.1882
     26 C           3.4045    4.1498    5.8954 C.ar    1  LIG1        0.2307
     27 C           2.2159    4.1265    5.1962 C.ar    1  LIG1        0.2641
     28 C           1.3351    5.8148    6.4677 C.ar    1  LIG1        0.1659
     29 C           0.3583    6.9057    6.6176 C.ar    1  LIG1        0.0227
     30 C           5.0406    3.3233    4.3864 C.ar    1  LIG1        0.1702
     31 C          -0.4194    7.3432    5.5322 C.ar    1  LIG1       -0.0252
     32 C           0.2229    7.6028    7.8258 C.ar    1  LIG1       -0.0328
     33 C           1.7958    1.9285    4.6257 C.3     1  LIG1        0.1143
     34 C           5.0114    4.3428    3.4181 C.ar    1  LIG1        0.1621
     35 C          -1.2610    8.4440    5.6793 C.ar    1  LIG1        0.0708
     36 C           5.7108    2.1222    4.1151 C.ar    1  LIG1       -0.0157
     37 C          -0.6498    8.6736    7.8976 C.ar    1  LIG1        0.0289
     38 C           1.0481    1.1360    3.5559 C.3     1  LIG1        0.0783
     39 C           5.6192    4.1141    2.1760 C.ar    1  LIG1       -0.0163
     40 C           6.3119    1.9075    2.8772 C.ar    1  LIG1       -0.0581
     41 C           6.2575    2.9003    1.9050 C.ar    1  LIG1       -0.0581
     42 C          -2.0174    8.9622    4.5353 C.ar    1  LIG1        0.0207
     43 C           3.9525    6.3404    2.6865 C.3     1  LIG1        0.0790
     44 H           1.3276    0.6097    1.7016 H       1  LIG1        0.2095
     45 H           4.1726    5.3846    8.8195 H       1  LIG1        0.1754
     46 H          -3.8208   10.8037    2.9112 H       1  LIG1        0.1651
     47 H           8.3420    8.7659   12.6602 H       1  LIG1        0.0344
     48 H           7.5060    6.0664   13.8346 H       1  LIG1        0.0235
     49 H           6.5079    7.5291   13.8106 H       1  LIG1        0.0235
     50 H           8.0306    7.5049   14.7143 H       1  LIG1        0.0235
     51 H           9.7518    6.0482   12.4861 H       1  LIG1        0.0235
     52 H          10.2618    7.4433   13.4500 H       1  LIG1        0.0235
     53 H          10.2759    7.5342   11.6822 H       1  LIG1        0.0235
     54 H           7.6583    9.3686   10.4987 H       1  LIG1        0.0622
     55 H           7.3187    5.2193   11.6406 H       1  LIG1        0.0833
     56 H           6.6149    8.7738    8.3224 H       1  LIG1        0.0653
     57 H          -0.3322    6.8476    4.5676 H       1  LIG1        0.0646
     58 H           0.8050    7.3281    8.7006 H       1  LIG1        0.0640
     59 H           1.2013    1.9260    5.5480 H       1  LIG1        0.0720
     60 H           2.7688    1.4630    4.8142 H       1  LIG1        0.0720
     61 H           5.7613    1.3491    4.8774 H       1  LIG1        0.0655
     62 H          -0.7703    9.2380    8.8182 H       1  LIG1        0.0830
     63 H           0.7257    0.1704    3.9568 H       1  LIG1        0.0591
     64 H           0.1759    1.6942    3.2014 H       1  LIG1        0.0591
     65 H           5.6318    4.8754    1.4033 H       1  LIG1        0.0655
     66 H           6.8242    0.9710    2.6759 H       1  LIG1        0.0619
     67 H           6.7272    2.7391    0.9382 H       1  LIG1        0.0619
     68 H           3.3068    7.1139    3.1135 H       1  LIG1        0.0660
     69 H           3.3489    5.7547    1.9841 H       1  LIG1        0.0660
     70 H           4.7782    6.8425    2.1727 H       1  LIG1        0.0660
@<TRIPOS>BOND
     1     1    21    1
     2     1     8    1
     3     1     4    2
     4     1     3    2
     5     2    26    1
     6     2    30    1
     7     5    27    1
     8     5    33    1
     9     6    34    1
    10     6    43    1
    11     7    38    1
    12     8    25    1
    13     9    23   ar
    14     9    21   ar
    15    10    25   ar
    16    10    28   ar
    17    11    27   ar
    18    11    28   ar
    19    12    37   ar
    20    12    35   ar
    21    13    15   ar
    22    13    42   ar
    23    14    42   ar
    24    14    16   ar
    25    15    16   ar
    26    17    18    1
    27    17    20    1
    28    17    19    1
    29    18    23   ar
    30    18    22   ar
    31    21    24   ar
    32    22    24   ar
    33    25    26   ar
    34    26    27   ar
    35    28    29    1
    36    29    31   ar
    37    29    32   ar
    38    30    36   ar
    39    30    34   ar
    40    31    35   ar
    41    32    37   ar
    42    33    38    1
    43    34    39   ar
    44    35    42    1
    45    36    40   ar
    46    39    41   ar
    47    40    41   ar
    48     7    44    1
    49     8    45    1
    50    15    46    1
    51    17    47    1
    52    19    48    1
    53    19    49    1
    54    19    50    1
    55    20    51    1
    56    20    52    1
    57    20    53    1
    58    22    54    1
    59    23    55    1
    60    24    56    1
    61    31    57    1
    62    32    58    1
    63    33    59    1
    64    33    60    1
    65    36    61    1
    66    37    62    1
    67    38    63    1
    68    38    64    1
    69    39    65    1
    70    40    66    1
    71    41    67    1
    72    43    68    1
    73    43    69    1
    74    43    70    1
@<TRIPOS>MOLECULE
9939443
 70 74 0 0 0
SMALL
GASTEIGER

@<TRIPOS>ATOM
      1 S           5.6580    6.2530    7.3031 S.O2    1  LIG1        0.0908
      2 O           4.3096    3.2607    5.7120 O.3     1  LIG1       -0.4435
      3 O           5.1920    7.0153    6.1657 O.2     1  LIG1       -0.1484
      4 O           6.9008    5.5028    7.2381 O.2     1  LIG1       -0.1484
      5 O           1.5800    3.1061    4.4252 O.3     1  LIG1       -0.4715
      6 O           4.0003    5.3101    3.6771 O.3     1  LIG1       -0.4914
      7 O           0.3293    0.9444    6.1241 O.3     1  LIG1       -0.3917
      8 N           4.5035    5.1067    7.7768 N.pl3   1  LIG1       -0.1950
      9 N           6.8419    7.2836    9.4696 N.ar    1  LIG1       -0.2351
     10 N           2.4239    5.9632    7.2290 N.ar    1  LIG1       -0.2073
     11 N           1.0481    4.9325    5.5903 N.ar    1  LIG1       -0.1899
     12 N          -1.6168    9.0217    6.9000 N.ar    1  LIG1       -0.2552
     13 N          -1.2121   11.0957    8.8564 N.ar    1  LIG1       -0.5621
     14 N           0.8203   10.2558    9.3844 N.ar    1  LIG1       -0.1535
     15 N          -0.5523   11.8027    9.7793 N.ar    1  LIG1       -0.3597
     16 N           0.6566   11.3435   10.1232 N.ar    1  LIG1       -0.0878
     17 C           6.2524   10.2731   11.7684 C.3     1  LIG1       -0.0201
     18 C           6.0263    9.2095   10.7121 C.ar    1  LIG1       -0.0266
     19 C           6.4184    9.6766   13.1678 C.3     1  LIG1       -0.0586
     20 C           7.4520   11.1587   11.4148 C.3     1  LIG1       -0.0586
     21 C           5.7140    7.3600    8.7162 C.ar    1  LIG1        0.1969
     22 C           4.8661    9.2225    9.9259 C.ar    1  LIG1       -0.0535
     23 C           6.9670    8.2125   10.4441 C.ar    1  LIG1        0.0332
     24 C           4.7059    8.2915    8.9016 C.ar    1  LIG1       -0.0160
     25 C           3.3517    5.0372    6.9422 C.ar    1  LIG1        0.1882
     26 C           3.2426    4.0748    5.9494 C.ar    1  LIG1        0.2307
     27 C           2.0038    4.0120    5.3470 C.ar    1  LIG1        0.2641
     28 C           1.3074    5.8962    6.4895 C.ar    1  LIG1        0.1659
     29 C           0.2972    6.9600    6.6478 C.ar    1  LIG1        0.0227
     30 C           4.9272    3.2694    4.4704 C.ar    1  LIG1        0.1702
     31 C           0.4636    8.0056    7.5697 C.ar    1  LIG1       -0.0252
     32 C          -0.8641    6.9850    5.8616 C.ar    1  LIG1       -0.0328
     33 C           1.9690    1.7355    4.5199 C.3     1  LIG1        0.1143
     34 C           4.7704    4.2082    3.4326 C.ar    1  LIG1        0.1621
     35 C          -0.4974    9.0107    7.6677 C.ar    1  LIG1        0.0708
     36 C           5.7777    2.1666    4.2872 C.ar    1  LIG1       -0.0157
     37 C          -1.7744    8.0151    6.0198 C.ar    1  LIG1        0.0289
     38 C           1.7242    1.0569    5.8684 C.3     1  LIG1        0.0783
     39 C           5.4066    3.9695    2.2063 C.ar    1  LIG1       -0.0163
     40 C           6.4154    1.9515    3.0681 C.ar    1  LIG1       -0.0581
     41 C           6.2154    2.8445    2.0227 C.ar    1  LIG1       -0.0581
     42 C          -0.3206   10.1132    8.6168 C.ar    1  LIG1        0.0207
     43 C           3.8832    6.2971    2.6617 C.3     1  LIG1        0.0790
     44 H           0.2268    0.5124    6.9892 H       1  LIG1        0.2095
     45 H           5.0026    4.2195    7.8434 H       1  LIG1        0.1754
     46 H          -0.9456   12.6408   10.1981 H       1  LIG1        0.1651
     47 H           5.3690   10.9248   11.8001 H       1  LIG1        0.0344
     48 H           7.3133    9.0495   13.2436 H       1  LIG1        0.0235
     49 H           5.5532    9.0610   13.4364 H       1  LIG1        0.0235
     50 H           6.5080   10.4727   13.9156 H       1  LIG1        0.0235
     51 H           8.3921   10.5958   11.4227 H       1  LIG1        0.0235
     52 H           7.5512   11.9799   12.1332 H       1  LIG1        0.0235
     53 H           7.3356   11.5987   10.4180 H       1  LIG1        0.0235
     54 H           4.0936    9.9726   10.0865 H       1  LIG1        0.0622
     55 H           7.8921    8.1434   11.0116 H       1  LIG1        0.0833
     56 H           3.8360    8.3136    8.2554 H       1  LIG1        0.0653
     57 H           1.3436    8.0341    8.2059 H       1  LIG1        0.0646
     58 H          -1.0592    6.2111    5.1231 H       1  LIG1        0.0640
     59 H           3.0019    1.6090    4.1987 H       1  LIG1        0.0720
     60 H           1.3638    1.2164    3.7666 H       1  LIG1        0.0720
     61 H           5.9292    1.4581    5.0981 H       1  LIG1        0.0655
     62 H          -2.6794    8.0588    5.4199 H       1  LIG1        0.0830
     63 H           2.1424    0.0452    5.8447 H       1  LIG1        0.0591
     64 H           2.1799    1.6017    6.6982 H       1  LIG1        0.0591
     65 H           5.2918    4.6444    1.3639 H       1  LIG1        0.0655
     66 H           7.0597    1.0869    2.9329 H       1  LIG1        0.0619
     67 H           6.6975    2.6754    1.0628 H       1  LIG1        0.0619
     68 H           3.2596    7.1066    3.0530 H       1  LIG1        0.0660
     69 H           3.3823    5.8927    1.7759 H       1  LIG1        0.0660
     70 H           4.8597    6.7212    2.4067 H       1  LIG1        0.0660
@<TRIPOS>BOND
     1     1    21    1
     2     1     8    1
     3     1     4    2
     4     1     3    2
     5     2    26    1
     6     2    30    1
     7     5    27    1
     8     5    33    1
     9     6    34    1
    10     6    43    1
    11     7    38    1
    12     8    25    1
    13     9    23   ar
    14     9    21   ar
    15    10    25   ar
    16    10    28   ar
    17    11    27   ar
    18    11    28   ar
    19    12    37   ar
    20    12    35   ar
    21    13    15   ar
    22    13    42   ar
    23    14    42   ar
    24    14    16   ar
    25    15    16   ar
    26    17    18    1
    27    17    20    1
    28    17    19    1
    29    18    23   ar
    30    18    22   ar
    31    21    24   ar
    32    22    24   ar
    33    25    26   ar
    34    26    27   ar
    35    28    29    1
    36    29    31   ar
    37    29    32   ar
    38    30    36   ar
    39    30    34   ar
    40    31    35   ar
    41    32    37   ar
    42    33    38    1
    43    34    39   ar
    44    35    42    1
    45    36    40   ar
    46    39    41   ar
    47    40    41   ar
    48     7    44    1
    49     8    45    1
    50    15    46    1
    51    17    47    1
    52    19    48    1
    53    19    49    1
    54    19    50    1
    55    20    51    1
    56    20    52    1
    57    20    53    1
    58    22    54    1
    59    23    55    1
    60    24    56    1
    61    31    57    1
    62    32    58    1
    63    33    59    1
    64    33    60    1
    65    36    61    1
    66    37    62    1
    67    38    63    1
    68    38    64    1
    69    39    65    1
    70    40    66    1
    71    41    67    1
    72    43    68    1
    73    43    69    1
    74    43    70    1
@<TRIPOS>MOLECULE
9939443
 70 74 0 0 0
SMALL
GASTEIGER

@<TRIPOS>ATOM
      1 S           5.6075    6.2493    7.5233 S.O2    1  LIG1        0.0908
      2 O           4.3998    3.3572    5.7355 O.3     1  LIG1       -0.4435
      3 O           6.8657    5.5511    7.3581 O.2     1  LIG1       -0.1484
      4 O           5.4800    7.2615    8.5594 O.2     1  LIG1       -0.1484
      5 O           2.0562    3.5231    3.9861 O.3     1  LIG1       -0.4715
      6 O           2.5241    1.4631    6.5807 O.3     1  LIG1       -0.4914
      7 O          -0.8090    1.8701    2.4191 O.3     1  LIG1       -0.3917
      8 N           4.4092    5.0994    7.9091 N.pl3   1  LIG1       -0.1950
      9 N           5.4715    6.2988    4.8667 N.ar    1  LIG1       -0.2351
     10 N           2.3943    5.9505    7.2708 N.ar    1  LIG1       -0.2073
     11 N           1.2550    5.2578    5.3104 N.ar    1  LIG1       -0.1899
     12 N          -1.2653    9.3868    6.8154 N.ar    1  LIG1       -0.2552
     13 N          -2.1800    8.5550    3.3583 N.ar    1  LIG1       -0.5621
     14 N          -2.7268   10.3688    4.5965 N.ar    1  LIG1       -0.1535
     15 N          -3.0119    9.4100    2.7454 N.ar    1  LIG1       -0.3597
     16 N          -3.3497   10.5024    3.4341 N.ar    1  LIG1       -0.0878
     17 C           3.8662    8.4898    2.1986 C.3     1  LIG1       -0.0201
     18 C           4.3316    7.9850    3.5482 C.ar    1  LIG1       -0.0266
     19 C           5.0407    9.0290    1.3801 C.3     1  LIG1       -0.0586
     20 C           3.1021    7.4176    1.4149 C.3     1  LIG1       -0.0586
     21 C           5.1481    7.0207    5.9701 C.ar    1  LIG1        0.1969
     22 C           4.0379    8.7017    4.7168 C.ar    1  LIG1       -0.0535
     23 C           5.0678    6.8081    3.6852 C.ar    1  LIG1        0.0332
     24 C           4.4589    8.2227    5.9541 C.ar    1  LIG1       -0.0160
     25 C           3.3237    5.0227    6.9944 C.ar    1  LIG1        0.1882
     26 C           3.3136    4.1627    5.9125 C.ar    1  LIG1        0.2307
     27 C           2.2032    4.3107    5.1090 C.ar    1  LIG1        0.2641
     28 C           1.3934    6.0469    6.3853 C.ar    1  LIG1        0.1659
     29 C           0.4513    7.1660    6.5465 C.ar    1  LIG1        0.0227
     30 C           4.2745    2.1267    5.1373 C.ar    1  LIG1        0.1702
     31 C          -0.3678    7.5900    5.4873 C.ar    1  LIG1       -0.0252
     32 C           0.3671    7.8838    7.7475 C.ar    1  LIG1       -0.0328
     33 C           0.6792    3.3234    3.6480 C.3     1  LIG1        0.1143
     34 C           3.3777    1.1331    5.5613 C.ar    1  LIG1        0.1621
     35 C          -1.1978    8.6970    5.6494 C.ar    1  LIG1        0.0708
     36 C           5.2209    1.8547    4.1424 C.ar    1  LIG1       -0.0157
     37 C          -0.4931    8.9642    7.8343 C.ar    1  LIG1        0.0289
     38 C           0.5547    2.0883    2.7646 C.3     1  LIG1        0.0783
     39 C           3.4118   -0.1142    4.9263 C.ar    1  LIG1       -0.0163
     40 C           5.2540    0.6057    3.5287 C.ar    1  LIG1       -0.0581
     41 C           4.3455   -0.3753    3.9164 C.ar    1  LIG1       -0.0581
     42 C          -2.0249    9.1829    4.5435 C.ar    1  LIG1        0.0207
     43 C           1.7732    0.4091    7.1672 C.3     1  LIG1        0.0790
     44 H          -0.8393    1.0639    1.8758 H       1  LIG1        0.2095
     45 H           4.0314    5.4038    8.8059 H       1  LIG1        0.1754
     46 H          -3.3669    9.2427    1.8081 H       1  LIG1        0.1651
     47 H           3.1670    9.3208    2.3615 H       1  LIG1        0.0344
     48 H           5.7729    8.2460    1.1538 H       1  LIG1        0.0235
     49 H           5.5626    9.8257    1.9221 H       1  LIG1        0.0235
     50 H           4.6902    9.4451    0.4294 H       1  LIG1        0.0235
     51 H           3.7471    6.5804    1.1263 H       1  LIG1        0.0235
     52 H           2.6822    7.8404    0.4959 H       1  LIG1        0.0235
     53 H           2.2743    7.0130    2.0082 H       1  LIG1        0.0235
     54 H           3.4715    9.6296    4.6698 H       1  LIG1        0.0622
     55 H           5.3573    6.2151    2.8213 H       1  LIG1        0.0833
     56 H           4.2197    8.7534    6.8693 H       1  LIG1        0.0653
     57 H          -0.3382    7.0728    4.5306 H       1  LIG1        0.0646
     58 H           0.9686    7.6120    8.6105 H       1  LIG1        0.0640
     59 H           0.2949    4.1998    3.1110 H       1  LIG1        0.0720
     60 H           0.0583    3.1686    4.5418 H       1  LIG1        0.0720
     61 H           5.9419    2.6192    3.8615 H       1  LIG1        0.0655
     62 H          -0.5800    9.5396    8.7522 H       1  LIG1        0.0830
     63 H           1.1414    2.2081    1.8484 H       1  LIG1        0.0591
     64 H           0.9303    1.2047    3.2906 H       1  LIG1        0.0591
     65 H           2.7318   -0.9136    5.2007 H       1  LIG1        0.0655
     66 H           5.9957    0.3955    2.7624 H       1  LIG1        0.0619
     67 H           4.3735   -1.3543    3.4438 H       1  LIG1        0.0619
     68 H           1.2158    0.8273    8.0107 H       1  LIG1        0.0660
     69 H           2.4302   -0.3754    7.5569 H       1  LIG1        0.0660
     70 H           1.0453    0.0024    6.4578 H       1  LIG1        0.0660
@<TRIPOS>BOND
     1     1    21    1
     2     1     8    1
     3     1     4    2
     4     1     3    2
     5     2    26    1
     6     2    30    1
     7     5    27    1
     8     5    33    1
     9     6    34    1
    10     6    43    1
    11     7    38    1
    12     8    25    1
    13     9    23   ar
    14     9    21   ar
    15    10    25   ar
    16    10    28   ar
    17    11    27   ar
    18    11    28   ar
    19    12    37   ar
    20    12    35   ar
    21    13    15   ar
    22    13    42   ar
    23    14    42   ar
    24    14    16   ar
    25    15    16   ar
    26    17    18    1
    27    17    20    1
    28    17    19    1
    29    18    23   ar
    30    18    22   ar
    31    21    24   ar
    32    22    24   ar
    33    25    26   ar
    34    26    27   ar
    35    28    29    1
    36    29    31   ar
    37    29    32   ar
    38    30    36   ar
    39    30    34   ar
    40    31    35   ar
    41    32    37   ar
    42    33    38    1
    43    34    39   ar
    44    35    42    1
    45    36    40   ar
    46    39    41   ar
    47    40    41   ar
    48     7    44    1
    49     8    45    1
    50    15    46    1
    51    17    47    1
    52    19    48    1
    53    19    49    1
    54    19    50    1
    55    20    51    1
    56    20    52    1
    57    20    53    1
    58    22    54    1
    59    23    55    1
    60    24    56    1
    61    31    57    1
    62    32    58    1
    63    33    59    1
    64    33    60    1
    65    36    61    1
    66    37    62    1
    67    38    63    1
    68    38    64    1
    69    39    65    1
    70    40    66    1
    71    41    67    1
    72    43    68    1
    73    43    69    1
    74    43    70    1
@<TRIPOS>MOLECULE
9939443
 70 74 0 0 0
SMALL
GASTEIGER

@<TRIPOS>ATOM
      1 S           5.6080    6.2593    7.2920 S.O2    1  LIG1        0.0908
      2 O           4.4054    3.6370    5.0492 O.3     1  LIG1       -0.4435
      3 O           4.9376    7.5094    7.5932 O.2     1  LIG1       -0.1484
      4 O           6.2692    6.0342    6.0218 O.2     1  LIG1       -0.1484
      5 O           1.7646    3.5350    3.9051 O.3     1  LIG1       -0.4715
      6 O           5.8713    2.2654    6.9759 O.3     1  LIG1       -0.4914
      7 O          -1.1172    1.5971    2.7372 O.3     1  LIG1       -0.3917
      8 N           4.5505    4.9724    7.5854 N.pl3   1  LIG1       -0.1950
      9 N           6.3596    5.3084    9.6681 N.ar    1  LIG1       -0.2351
     10 N           2.4181    5.7457    7.2812 N.ar    1  LIG1       -0.2073
     11 N           1.0464    5.0376    5.4960 N.ar    1  LIG1       -0.1899
     12 N          -1.5535    8.9514    7.2467 N.ar    1  LIG1       -0.2552
     13 N          -0.8713   11.1583    8.9333 N.ar    1  LIG1       -0.5621
     14 N           0.9295   10.0512    9.7361 N.ar    1  LIG1       -0.1535
     15 N          -0.2092   11.8153    9.8900 N.ar    1  LIG1       -0.3597
     16 N           0.8608   11.1971   10.3993 N.ar    1  LIG1       -0.0878
     17 C           9.5641    4.9861   11.6795 C.3     1  LIG1       -0.0201
     18 C           8.6304    5.3907   10.5516 C.ar    1  LIG1       -0.0266
     19 C           9.9059    3.4954   11.5837 C.3     1  LIG1       -0.0586
     20 C          10.8568    5.8051   11.7730 C.3     1  LIG1       -0.0586
     21 C           6.8231    6.0007    8.5897 C.ar    1  LIG1        0.1969
     22 C           9.0450    6.0989    9.4144 C.ar    1  LIG1       -0.0535
     23 C           7.2804    5.0268   10.6164 C.ar    1  LIG1        0.0332
     24 C           8.1318    6.4097    8.4087 C.ar    1  LIG1       -0.0160
     25 C           3.3896    4.9604    6.7778 C.ar    1  LIG1        0.1882
     26 C           3.2976    4.2065    5.6189 C.ar    1  LIG1        0.2307
     27 C           2.0422    4.2455    5.0515 C.ar    1  LIG1        0.2641
     28 C           1.2916    5.8075    6.5642 C.ar    1  LIG1        0.1659
     29 C           0.3012    6.8605    6.8571 C.ar    1  LIG1        0.0227
     30 C           4.4775    2.2631    5.0241 C.ar    1  LIG1        0.1702
     31 C           0.5549    7.8968    7.7705 C.ar    1  LIG1       -0.0252
     32 C          -0.9175    6.9087    6.1595 C.ar    1  LIG1       -0.0328
     33 C           0.4332    3.0011    3.9412 C.3     1  LIG1        0.1143
     34 C           5.2424    1.5768    5.9720 C.ar    1  LIG1        0.1621
     35 C          -0.3805    8.9199    7.9330 C.ar    1  LIG1        0.0708
     36 C           3.9759    1.5603    3.9256 C.ar    1  LIG1       -0.0157
     37 C          -1.7949    7.9531    6.3809 C.ar    1  LIG1        0.0289
     38 C           0.1909    2.1555    2.6976 C.3     1  LIG1        0.0783
     39 C           5.3814    0.1872    5.8995 C.ar    1  LIG1       -0.0163
     40 C           4.1222    0.1736    3.8421 C.ar    1  LIG1       -0.0581
     41 C           4.8129   -0.5149    4.8371 C.ar    1  LIG1       -0.0581
     42 C          -0.1272   10.0359    8.8484 C.ar    1  LIG1        0.0207
     43 C           7.2785    2.3204    6.7271 C.3     1  LIG1        0.0790
     44 H          -1.2465    1.1092    1.9058 H       1  LIG1        0.2095
     45 H           4.3156    4.9819    8.5795 H       1  LIG1        0.1754
     46 H          -0.5007   12.7334   10.2129 H       1  LIG1        0.1651
     47 H           9.0255    5.1527   12.6229 H       1  LIG1        0.0344
     48 H          10.4197    3.2631   10.6440 H       1  LIG1        0.0235
     49 H           9.0043    2.8747   11.6311 H       1  LIG1        0.0235
     50 H          10.5576    3.1914   12.4103 H       1  LIG1        0.0235
     51 H          11.5134    5.6296   10.9136 H       1  LIG1        0.0235
     52 H          11.4189    5.5319   12.6731 H       1  LIG1        0.0235
     53 H          10.6432    6.8779   11.8275 H       1  LIG1        0.0235
     54 H          10.0784    6.4108    9.2889 H       1  LIG1        0.0622
     55 H           6.8941    4.4684   11.4671 H       1  LIG1        0.0833
     56 H           8.4361    6.9436    7.5152 H       1  LIG1        0.0653
     57 H           1.4933    7.9233    8.3211 H       1  LIG1        0.0646
     58 H          -1.1765    6.1502    5.4252 H       1  LIG1        0.0640
     59 H          -0.3202    3.7992    3.9627 H       1  LIG1        0.0720
     60 H           0.2975    2.3778    4.8358 H       1  LIG1        0.0720
     61 H           3.4938    2.0893    3.1101 H       1  LIG1        0.0655
     62 H          -2.7352    8.0205    5.8411 H       1  LIG1        0.0830
     63 H           0.2885    2.7703    1.7969 H       1  LIG1        0.0591
     64 H           0.9224    1.3441    2.6315 H       1  LIG1        0.0591
     65 H           5.9481   -0.3458    6.6573 H       1  LIG1        0.0655
     66 H           3.7131   -0.3648    2.9910 H       1  LIG1        0.0619
     67 H           4.9330   -1.5933    4.7704 H       1  LIG1        0.0619
     68 H           7.7010    3.1212    7.3404 H       1  LIG1        0.0660
     69 H           7.5066    2.5431    5.6775 H       1  LIG1        0.0660
     70 H           7.7553    1.3802    7.0248 H       1  LIG1        0.0660
@<TRIPOS>BOND
     1     1    21    1
     2     1     8    1
     3     1     4    2
     4     1     3    2
     5     2    26    1
     6     2    30    1
     7     5    27    1
     8     5    33    1
     9     6    34    1
    10     6    43    1
    11     7    38    1
    12     8    25    1
    13     9    23   ar
    14     9    21   ar
    15    10    25   ar
    16    10    28   ar
    17    11    27   ar
    18    11    28   ar
    19    12    37   ar
    20    12    35   ar
    21    13    15   ar
    22    13    42   ar
    23    14    42   ar
    24    14    16   ar
    25    15    16   ar
    26    17    18    1
    27    17    20    1
    28    17    19    1
    29    18    23   ar
    30    18    22   ar
    31    21    24   ar
    32    22    24   ar
    33    25    26   ar
    34    26    27   ar
    35    28    29    1
    36    29    31   ar
    37    29    32   ar
    38    30    36   ar
    39    30    34   ar
    40    31    35   ar
    41    32    37   ar
    42    33    38    1
    43    34    39   ar
    44    35    42    1
    45    36    40   ar
    46    39    41   ar
    47    40    41   ar
    48     7    44    1
    49     8    45    1
    50    15    46    1
    51    17    47    1
    52    19    48    1
    53    19    49    1
    54    19    50    1
    55    20    51    1
    56    20    52    1
    57    20    53    1
    58    22    54    1
    59    23    55    1
    60    24    56    1
    61    31    57    1
    62    32    58    1
    63    33    59    1
    64    33    60    1
    65    36    61    1
    66    37    62    1
    67    38    63    1
    68    38    64    1
    69    39    65    1
    70    40    66    1
    71    41    67    1
    72    43    68    1
    73    43    69    1
    74    43    70    1
@<TRIPOS>MOLECULE
9939443
 70 74 0 0 0
SMALL
GASTEIGER

@<TRIPOS>ATOM
      1 S           5.7807    6.3054    7.3375 S.O2    1  LIG1        0.0908
      2 O           4.5042    3.3069    5.7584 O.3     1  LIG1       -0.4435
      3 O           5.6602    6.5767    5.9173 O.2     1  LIG1       -0.1484
      4 O           7.0368    5.8195    7.8793 O.2     1  LIG1       -0.1484
      5 O           2.0810    3.3608    4.0919 O.3     1  LIG1       -0.4715
      6 O           5.7708    1.0276    5.4746 O.3     1  LIG1       -0.4914
      7 O           1.8327   -0.2650    3.7690 O.3     1  LIG1       -0.3917
      8 N           4.6136    5.1724    7.7808 N.pl3   1  LIG1       -0.1950
      9 N           5.0348    7.6047    9.5442 N.ar    1  LIG1       -0.2351
     10 N           2.5761    6.0460    7.1278 N.ar    1  LIG1       -0.2073
     11 N           1.3407    5.1410    5.3050 N.ar    1  LIG1       -0.1899
     12 N          -1.3524    9.1788    6.7779 N.ar    1  LIG1       -0.2552
     13 N          -1.8740    8.6721    3.1786 N.ar    1  LIG1       -0.5621
     14 N          -2.9504   10.0523    4.6133 N.ar    1  LIG1       -0.1535
     15 N          -2.7938    9.4585    2.6011 N.ar    1  LIG1       -0.3597
     16 N          -3.4575   10.2863    3.4111 N.ar    1  LIG1       -0.0878
     17 C           4.6413   11.2787   10.5714 C.3     1  LIG1       -0.0201
     18 C           4.8577   10.0249    9.7411 C.ar    1  LIG1       -0.0266
     19 C           3.3645   12.0099   10.1425 C.3     1  LIG1       -0.0586
     20 C           4.6188   11.0605   12.0887 C.3     1  LIG1       -0.0586
     21 C           5.3522    7.7896    8.2358 C.ar    1  LIG1        0.1969
     22 C           5.1693   10.1487    8.3769 C.ar    1  LIG1       -0.0535
     23 C           4.7933    8.7290   10.2572 C.ar    1  LIG1        0.0332
     24 C           5.4161    9.0190    7.6036 C.ar    1  LIG1       -0.0160
     25 C           3.4994    5.1007    6.9120 C.ar    1  LIG1        0.1882
     26 C           3.4641    4.1801    5.8846 C.ar    1  LIG1        0.2307
     27 C           2.3025    4.2113    5.1426 C.ar    1  LIG1        0.2641
     28 C           1.5243    6.0348    6.2934 C.ar    1  LIG1        0.1659
     29 C           0.5228    7.0981    6.4612 C.ar    1  LIG1        0.0227
     30 C           5.0708    3.0733    4.5216 C.ar    1  LIG1        0.1702
     31 C          -0.2797    7.5253    5.3916 C.ar    1  LIG1       -0.0252
     32 C           0.3524    7.7463    7.6922 C.ar    1  LIG1       -0.0328
     33 C           1.7926    2.0325    4.5362 C.3     1  LIG1        0.1143
     34 C           5.7483    1.8501    4.3759 C.ar    1  LIG1        0.1621
     35 C          -1.1883    8.5655    5.5782 C.ar    1  LIG1        0.0708
     36 C           5.0509    3.9871    3.4622 C.ar    1  LIG1       -0.0157
     37 C          -0.5859    8.7567    7.8019 C.ar    1  LIG1        0.0289
     38 C           1.9957    1.0859    3.3573 C.3     1  LIG1        0.0783
     39 C           6.3130    1.5148    3.1417 C.ar    1  LIG1       -0.0163
     40 C           5.6218    3.6462    2.2351 C.ar    1  LIG1       -0.0581
     41 C           6.2406    2.4088    2.0718 C.ar    1  LIG1       -0.0581
     42 C          -1.9908    9.0724    4.4630 C.ar    1  LIG1        0.0207
     43 C           6.8892    0.1510    5.5636 C.3     1  LIG1        0.0790
     44 H           2.1025   -0.8208    3.0173 H       1  LIG1        0.2095
     45 H           5.0713    4.2893    7.9975 H       1  LIG1        0.1754
     46 H          -2.9776    9.4331    1.6022 H       1  LIG1        0.1651
     47 H           5.4950   11.9409   10.3700 H       1  LIG1        0.0344
     48 H           2.4781   11.3825   10.2873 H       1  LIG1        0.0235
     49 H           3.4001   12.2965    9.0858 H       1  LIG1        0.0235
     50 H           3.2300   12.9289   10.7237 H       1  LIG1        0.0235
     51 H           3.7550   10.4623   12.3993 H       1  LIG1        0.0235
     52 H           4.5603   12.0205   12.6138 H       1  LIG1        0.0235
     53 H           5.5279   10.5539   12.4307 H       1  LIG1        0.0235
     54 H           5.2387   11.1313    7.9143 H       1  LIG1        0.0622
     55 H           4.5513    8.5374   11.2990 H       1  LIG1        0.0833
     56 H           5.6766    9.1051    6.5545 H       1  LIG1        0.0653
     57 H          -0.1772    7.0616    4.4128 H       1  LIG1        0.0646
     58 H           0.9445    7.4670    8.5600 H       1  LIG1        0.0640
     59 H           0.7534    1.9784    4.8825 H       1  LIG1        0.0720
     60 H           2.4309    1.7118    5.3687 H       1  LIG1        0.0720
     61 H           4.5937    4.9673    3.5666 H       1  LIG1        0.0655
     62 H          -0.7457    9.2727    8.7447 H       1  LIG1        0.0830
     63 H           1.2756    1.3052    2.5620 H       1  LIG1        0.0591
     64 H           2.9978    1.2096    2.9339 H       1  LIG1        0.0591
     65 H           6.8018    0.5591    2.9834 H       1  LIG1        0.0655
     66 H           5.5816    4.3490    1.4063 H       1  LIG1        0.0619
     67 H           6.6762    2.1430    1.1117 H       1  LIG1        0.0619
     68 H           6.9465   -0.2138    6.5937 H       1  LIG1        0.0660
     69 H           7.8305    0.6665    5.3414 H       1  LIG1        0.0660
     70 H           6.7519   -0.7149    4.9088 H       1  LIG1        0.0660
@<TRIPOS>BOND
     1     1    21    1
     2     1     8    1
     3     1     4    2
     4     1     3    2
     5     2    26    1
     6     2    30    1
     7     5    27    1
     8     5    33    1
     9     6    34    1
    10     6    43    1
    11     7    38    1
    12     8    25    1
    13     9    23   ar
    14     9    21   ar
    15    10    25   ar
    16    10    28   ar
    17    11    27   ar
    18    11    28   ar
    19    12    37   ar
    20    12    35   ar
    21    13    15   ar
    22    13    42   ar
    23    14    42   ar
    24    14    16   ar
    25    15    16   ar
    26    17    18    1
    27    17    20    1
    28    17    19    1
    29    18    23   ar
    30    18    22   ar
    31    21    24   ar
    32    22    24   ar
    33    25    26   ar
    34    26    27   ar
    35    28    29    1
    36    29    31   ar
    37    29    32   ar
    38    30    36   ar
    39    30    34   ar
    40    31    35   ar
    41    32    37   ar
    42    33    38    1
    43    34    39   ar
    44    35    42    1
    45    36    40   ar
    46    39    41   ar
    47    40    41   ar
    48     7    44    1
    49     8    45    1
    50    15    46    1
    51    17    47    1
    52    19    48    1
    53    19    49    1
    54    19    50    1
    55    20    51    1
    56    20    52    1
    57    20    53    1
    58    22    54    1
    59    23    55    1
    60    24    56    1
    61    31    57    1
    62    32    58    1
    63    33    59    1
    64    33    60    1
    65    36    61    1
    66    37    62    1
    67    38    63    1
    68    38    64    1
    69    39    65    1
    70    40    66    1
    71    41    67    1
    72    43    68    1
    73    43    69    1
    74    43    70    1
@<TRIPOS>MOLECULE
9939443
 70 74 0 0 0
SMALL
GASTEIGER

@<TRIPOS>ATOM
      1 S           5.6404    6.2602    7.3051 S.O2    1  LIG1        0.0908
      2 O           4.3999    3.5718    5.0283 O.3     1  LIG1       -0.4435
      3 O           4.9395    7.4814    7.6471 O.2     1  LIG1       -0.1484
      4 O           6.3188    6.1122    6.0317 O.2     1  LIG1       -0.1484
      5 O           1.7272    3.4925    3.9389 O.3     1  LIG1       -0.4715
      6 O           5.8923    2.2561    6.9313 O.3     1  LIG1       -0.4914
      7 O           0.8242    1.0372    2.5145 O.3     1  LIG1       -0.3917
      8 N           4.6213    4.9355    7.5322 N.pl3   1  LIG1       -0.1950
      9 N           6.3999    5.2220    9.6368 N.ar    1  LIG1       -0.2351
     10 N           2.5007    5.7454    7.2569 N.ar    1  LIG1       -0.2073
     11 N           1.0614    5.0090    5.5329 N.ar    1  LIG1       -0.1899
     12 N          -1.2989    9.1295    7.0765 N.ar    1  LIG1       -0.2552
     13 N          -3.7890    6.7629    5.7660 N.ar    1  LIG1       -0.5621
     14 N          -3.9931    8.9767    6.1917 N.ar    1  LIG1       -0.1535
     15 N          -5.0135    7.2584    5.5357 N.ar    1  LIG1       -0.3597
     16 N          -5.1793    8.5613    5.7689 N.ar    1  LIG1       -0.0878
     17 C           9.5824    4.9829   11.6937 C.3     1  LIG1       -0.0201
     18 C           8.6379    5.3898   10.5793 C.ar    1  LIG1       -0.0266
     19 C          10.4138    3.7698   11.2699 C.3     1  LIG1       -0.0586
     20 C          10.4945    6.1185   12.1682 C.3     1  LIG1       -0.0586
     21 C           6.8511    5.9869    8.6012 C.ar    1  LIG1        0.1969
     22 C           9.0433    6.1664    9.4830 C.ar    1  LIG1       -0.0535
     23 C           7.3127    4.9455   10.5942 C.ar    1  LIG1        0.0332
     24 C           8.1390    6.4716    8.4687 C.ar    1  LIG1       -0.0160
     25 C           3.4452    4.9350    6.7503 C.ar    1  LIG1        0.1882
     26 C           3.3082    4.1528    5.6158 C.ar    1  LIG1        0.2307
     27 C           2.0368    4.1942    5.0806 C.ar    1  LIG1        0.2641
     28 C           1.3571    5.8051    6.5674 C.ar    1  LIG1        0.1659
     29 C           0.4333    6.9194    6.8199 C.ar    1  LIG1        0.0227
     30 C           4.4718    2.1969    5.0204 C.ar    1  LIG1        0.1702
     31 C          -0.9212    6.8347    6.4568 C.ar    1  LIG1       -0.0252
     32 C           0.8869    8.1420    7.3297 C.ar    1  LIG1       -0.0328
     33 C           0.4234    2.8915    4.0371 C.3     1  LIG1        0.1143
     34 C           5.2771    1.5246    5.9489 C.ar    1  LIG1        0.1621
     35 C          -1.7500    7.9456    6.5921 C.ar    1  LIG1        0.0708
     36 C           3.9294    1.4854    3.9477 C.ar    1  LIG1       -0.0157
     37 C           0.0010    9.2008    7.4310 C.ar    1  LIG1        0.0289
     38 C           0.0662    2.2284    2.7093 C.3     1  LIG1        0.0783
     39 C           5.4231    0.1346    5.8663 C.ar    1  LIG1       -0.0163
     40 C           4.0818    0.1017    3.8621 C.ar    1  LIG1       -0.0581
     41 C           4.8212   -0.5764    4.8270 C.ar    1  LIG1       -0.0581
     42 C          -3.1569    7.8798    6.1885 C.ar    1  LIG1        0.0207
     43 C           7.2805    1.9570    7.0679 C.3     1  LIG1        0.0790
     44 H           0.5831    0.6922    1.6378 H       1  LIG1        0.2095
     45 H           4.4217    4.8595    8.5301 H       1  LIG1        0.1754
     46 H          -5.7781    6.6786    5.2014 H       1  LIG1        0.1651
     47 H           8.9783    4.6881   12.5625 H       1  LIG1        0.0344
     48 H          11.0496    3.9979   10.4070 H       1  LIG1        0.0235
     49 H           9.7688    2.9280   10.9937 H       1  LIG1        0.0235
     50 H          11.0623    3.4384   12.0882 H       1  LIG1        0.0235
     51 H          11.2190    6.4135   11.4018 H       1  LIG1        0.0235
     52 H          11.0637    5.8070   13.0513 H       1  LIG1        0.0235
     53 H           9.9110    7.0043   12.4415 H       1  LIG1        0.0235
     54 H          10.0650    6.5286    9.4021 H       1  LIG1        0.0622
     55 H           6.9406    4.3229   11.4056 H       1  LIG1        0.0833
     56 H           8.4337    7.0606    7.6063 H       1  LIG1        0.0653
     57 H          -1.3168    5.9103    6.0433 H       1  LIG1        0.0646
     58 H           1.9303    8.2844    7.6041 H       1  LIG1        0.0640
     59 H          -0.3452    3.6465    4.2403 H       1  LIG1        0.0720
     60 H           0.4357    2.1440    4.8402 H       1  LIG1        0.0720
     61 H           3.3979    2.0015    3.1535 H       1  LIG1        0.0655
     62 H           0.3298   10.1709    7.7949 H       1  LIG1        0.0830
     63 H          -0.9927    1.9512    2.7060 H       1  LIG1        0.0591
     64 H           0.2692    2.9039    1.8728 H       1  LIG1        0.0591
     65 H           6.0070   -0.4091    6.6023 H       1  LIG1        0.0655
     66 H           3.6277   -0.4381    3.0351 H       1  LIG1        0.0619
     67 H           4.9425   -1.6534    4.7585 H       1  LIG1        0.0619
     68 H           7.7616    2.8057    7.5629 H       1  LIG1        0.0660
     69 H           7.7713    1.8141    6.0976 H       1  LIG1        0.0660
     70 H           7.4212    1.0759    7.7021 H       1  LIG1        0.0660
@<TRIPOS>BOND
     1     1    21    1
     2     1     8    1
     3     1     4    2
     4     1     3    2
     5     2    26    1
     6     2    30    1
     7     5    27    1
     8     5    33    1
     9     6    34    1
    10     6    43    1
    11     7    38    1
    12     8    25    1
    13     9    23   ar
    14     9    21   ar
    15    10    25   ar
    16    10    28   ar
    17    11    27   ar
    18    11    28   ar
    19    12    37   ar
    20    12    35   ar
    21    13    15   ar
    22    13    42   ar
    23    14    42   ar
    24    14    16   ar
    25    15    16   ar
    26    17    18    1
    27    17    20    1
    28    17    19    1
    29    18    23   ar
    30    18    22   ar
    31    21    24   ar
    32    22    24   ar
    33    25    26   ar
    34    26    27   ar
    35    28    29    1
    36    29    31   ar
    37    29    32   ar
    38    30    36   ar
    39    30    34   ar
    40    31    35   ar
    41    32    37   ar
    42    33    38    1
    43    34    39   ar
    44    35    42    1
    45    36    40   ar
    46    39    41   ar
    47    40    41   ar
    48     7    44    1
    49     8    45    1
    50    15    46    1
    51    17    47    1
    52    19    48    1
    53    19    49    1
    54    19    50    1
    55    20    51    1
    56    20    52    1
    57    20    53    1
    58    22    54    1
    59    23    55    1
    60    24    56    1
    61    31    57    1
    62    32    58    1
    63    33    59    1
    64    33    60    1
    65    36    61    1
    66    37    62    1
    67    38    63    1
    68    38    64    1
    69    39    65    1
    70    40    66    1
    71    41    67    1
    72    43    68    1
    73    43    69    1
    74    43    70    1
@<TRIPOS>MOLECULE
9939443
 70 74 0 0 0
SMALL
GASTEIGER

@<TRIPOS>ATOM
      1 S           5.7674    6.2696    7.3401 S.O2    1  LIG1        0.0908
      2 O           4.4430    3.2708    5.6413 O.3     1  LIG1       -0.4435
      3 O           5.4191    6.8854    6.0718 O.2     1  LIG1       -0.1484
      4 O           7.0503    5.6187    7.5399 O.2     1  LIG1       -0.1484
      5 O           1.6786    3.0588    4.4341 O.3     1  LIG1       -0.4715
      6 O           6.7149    1.9268    5.5269 O.3     1  LIG1       -0.4914
      7 O           2.1935    1.5716    7.1569 O.3     1  LIG1       -0.3917
      8 N           4.6418    5.0562    7.6933 N.pl3   1  LIG1       -0.1950
      9 N           6.4969    8.4761    8.5994 N.ar    1  LIG1       -0.2351
     10 N           2.5767    5.9710    7.1557 N.ar    1  LIG1       -0.2073
     11 N           1.1692    4.9469    5.5403 N.ar    1  LIG1       -0.1899
     12 N          -1.2652    9.2447    6.6962 N.ar    1  LIG1       -0.2552
     13 N          -3.4339    9.4351    4.8089 N.ar    1  LIG1       -0.5621
     14 N          -3.2155    7.2434    4.2981 N.ar    1  LIG1       -0.1535
     15 N          -4.3640    8.9768    3.9655 N.ar    1  LIG1       -0.3597
     16 N          -4.2786    7.6826    3.6387 N.ar    1  LIG1       -0.0878
     17 C           5.5539   10.4932   11.6669 C.3     1  LIG1       -0.0201
     18 C           5.5077    9.3978   10.6193 C.ar    1  LIG1       -0.0266
     19 C           4.1711   10.9631   12.1290 C.3     1  LIG1       -0.0586
     20 C           6.4004   10.0631   12.8670 C.3     1  LIG1       -0.0586
     21 C           5.5704    7.4820    8.6516 C.ar    1  LIG1        0.1969
     22 C           4.5875    8.3410   10.6420 C.ar    1  LIG1       -0.0535
     23 C           6.4395    9.4017    9.5804 C.ar    1  LIG1        0.0332
     24 C           4.6109    7.3647    9.6431 C.ar    1  LIG1       -0.0160
     25 C           3.4886    5.0324    6.8617 C.ar    1  LIG1        0.1882
     26 C           3.3721    4.0814    5.8626 C.ar    1  LIG1        0.2307
     27 C           2.1139    4.0082    5.3124 C.ar    1  LIG1        0.2641
     28 C           1.4550    5.9235    6.4199 C.ar    1  LIG1        0.1659
     29 C           0.4978    7.0415    6.5417 C.ar    1  LIG1        0.0227
     30 C           4.9922    3.1179    4.3840 C.ar    1  LIG1        0.1702
     31 C          -0.6703    7.1055    5.7593 C.ar    1  LIG1       -0.0252
     32 C           0.7397    8.1175    7.4085 C.ar    1  LIG1       -0.0328
     33 C           1.9532    1.6860    4.7396 C.3     1  LIG1        0.1143
     34 C           6.1549    2.3314    4.3386 C.ar    1  LIG1        0.1621
     35 C          -1.5149    8.2115    5.8508 C.ar    1  LIG1        0.0708
     36 C           4.4725    3.6147    3.1856 C.ar    1  LIG1       -0.0157
     37 C          -0.1528    9.1739    7.4504 C.ar    1  LIG1        0.0289
     38 C           1.3614    1.1960    6.0607 C.3     1  LIG1        0.0783
     39 C           6.7026    1.9327    3.1161 C.ar    1  LIG1       -0.0163
     40 C           5.0302    3.2276    1.9618 C.ar    1  LIG1       -0.0581
     41 C           6.1278    2.3704    1.9258 C.ar    1  LIG1       -0.0581
     42 C          -2.7099    8.3148    5.0079 C.ar    1  LIG1        0.0207
     43 C           8.0784    2.3469    5.6291 C.3     1  LIG1        0.0790
     44 H           1.8547    1.1064    7.9415 H       1  LIG1        0.2095
     45 H           5.1484    4.1681    7.7013 H       1  LIG1        0.1754
     46 H          -5.0937    9.5754    3.5891 H       1  LIG1        0.1651
     47 H           6.0385   11.3695   11.2145 H       1  LIG1        0.0344
     48 H           3.6471   10.1942   12.7065 H       1  LIG1        0.0235
     49 H           3.5416   11.2352   11.2749 H       1  LIG1        0.0235
     50 H           4.2637   11.8466   12.7707 H       1  LIG1        0.0235
     51 H           5.9650    9.1972   13.3780 H       1  LIG1        0.0235
     52 H           6.4823   10.8782   13.5947 H       1  LIG1        0.0235
     53 H           7.4159    9.7916   12.5574 H       1  LIG1        0.0235
     54 H           3.8503    8.2612   11.4370 H       1  LIG1        0.0622
     55 H           7.1981   10.1783    9.5080 H       1  LIG1        0.0833
     56 H           3.9005    6.5465    9.6604 H       1  LIG1        0.0653
     57 H          -0.9022    6.3049    5.0597 H       1  LIG1        0.0646
     58 H           1.6266    8.1473    8.0351 H       1  LIG1        0.0640
     59 H           3.0190    1.4632    4.6762 H       1  LIG1        0.0720
     60 H           1.4774    1.1195    3.9306 H       1  LIG1        0.0720
     61 H           3.6142    4.2772    3.1558 H       1  LIG1        0.0655
     62 H           0.0164   10.0252    8.1053 H       1  LIG1        0.0830
     63 H           0.3622    1.6070    6.2277 H       1  LIG1        0.0591
     64 H           1.3121    0.1023    6.0497 H       1  LIG1        0.0591
     65 H           7.5615    1.2694    3.0851 H       1  LIG1        0.0655
     66 H           4.5899    3.5832    1.0327 H       1  LIG1        0.0619
     67 H           6.5388    2.0499    0.9720 H       1  LIG1        0.0619
     68 H           8.3302    2.4215    6.6910 H       1  LIG1        0.0660
     69 H           8.2500    3.3303    5.1741 H       1  LIG1        0.0660
     70 H           8.7357    1.5982    5.1755 H       1  LIG1        0.0660
@<TRIPOS>BOND
     1     1    21    1
     2     1     8    1
     3     1     4    2
     4     1     3    2
     5     2    26    1
     6     2    30    1
     7     5    27    1
     8     5    33    1
     9     6    34    1
    10     6    43    1
    11     7    38    1
    12     8    25    1
    13     9    23   ar
    14     9    21   ar
    15    10    25   ar
    16    10    28   ar
    17    11    27   ar
    18    11    28   ar
    19    12    37   ar
    20    12    35   ar
    21    13    15   ar
    22    13    42   ar
    23    14    42   ar
    24    14    16   ar
    25    15    16   ar
    26    17    18    1
    27    17    20    1
    28    17    19    1
    29    18    23   ar
    30    18    22   ar
    31    21    24   ar
    32    22    24   ar
    33    25    26   ar
    34    26    27   ar
    35    28    29    1
    36    29    31   ar
    37    29    32   ar
    38    30    36   ar
    39    30    34   ar
    40    31    35   ar
    41    32    37   ar
    42    33    38    1
    43    34    39   ar
    44    35    42    1
    45    36    40   ar
    46    39    41   ar
    47    40    41   ar
    48     7    44    1
    49     8    45    1
    50    15    46    1
    51    17    47    1
    52    19    48    1
    53    19    49    1
    54    19    50    1
    55    20    51    1
    56    20    52    1
    57    20    53    1
    58    22    54    1
    59    23    55    1
    60    24    56    1
    61    31    57    1
    62    32    58    1
    63    33    59    1
    64    33    60    1
    65    36    61    1
    66    37    62    1
    67    38    63    1
    68    38    64    1
    69    39    65    1
    70    40    66    1
    71    41    67    1
    72    43    68    1
    73    43    69    1
    74    43    70    1
@<TRIPOS>MOLECULE
9939443
 70 74 0 0 0
SMALL
GASTEIGER

@<TRIPOS>ATOM
      1 S           5.6756    6.2230    7.3423 S.O2    1  LIG1        0.0908
      2 O           4.2413    3.0855    5.7858 O.3     1  LIG1       -0.4435
      3 O           5.0456    7.2578    6.5467 O.2     1  LIG1       -0.1484
      4 O           6.8196    5.4818    6.8546 O.2     1  LIG1       -0.1484
      5 O           1.6043    3.1416    4.3449 O.3     1  LIG1       -0.4715
      6 O           5.6331    0.9114    5.5395 O.3     1  LIG1       -0.4914
      7 O           0.0767    1.3727    6.2637 O.3     1  LIG1       -0.3917
      8 N           4.5560    4.9996    7.7373 N.pl3   1  LIG1       -0.1950
      9 N           7.2982    7.5542    8.9661 N.ar    1  LIG1       -0.2351
     10 N           2.5100    5.9435    7.1750 N.ar    1  LIG1       -0.2073
     11 N           1.1466    5.0247    5.4662 N.ar    1  LIG1       -0.1899
     12 N          -1.2839    9.2831    6.7111 N.ar    1  LIG1       -0.2552
     13 N          -3.5364    9.4410    4.9201 N.ar    1  LIG1       -0.5621
     14 N          -3.1798    7.3176    4.2274 N.ar    1  LIG1       -0.1535
     15 N          -4.4368    8.9956    4.0380 N.ar    1  LIG1       -0.3597
     16 N          -4.2695    7.7424    3.6022 N.ar    1  LIG1       -0.0878
     17 C           7.4737    8.5996   12.6079 C.3     1  LIG1       -0.0201
     18 C           6.9305    7.9718   11.3367 C.ar    1  LIG1       -0.0266
     19 C           7.2932   10.1206   12.5746 C.3     1  LIG1       -0.0586
     20 C           6.8887    8.0373   13.9078 C.3     1  LIG1       -0.0586
     21 C           6.0968    6.9220    8.9389 C.ar    1  LIG1        0.1969
     22 C           5.6991    7.3081   11.2547 C.ar    1  LIG1       -0.0535
     23 C           7.6752    8.0653   10.1577 C.ar    1  LIG1        0.0332
     24 C           5.2686    6.7706   10.0406 C.ar    1  LIG1       -0.0160
     25 C           3.4009    4.9814    6.8996 C.ar    1  LIG1        0.1882
     26 C           3.2534    4.0126    5.9220 C.ar    1  LIG1        0.2307
     27 C           2.0390    4.0336    5.2755 C.ar    1  LIG1        0.2641
     28 C           1.4218    5.9579    6.3928 C.ar    1  LIG1        0.1659
     29 C           0.4801    7.0859    6.5236 C.ar    1  LIG1        0.0227
     30 C           4.8694    2.9174    4.5663 C.ar    1  LIG1        0.1702
     31 C          -0.6917    7.1562    5.7495 C.ar    1  LIG1       -0.0252
     32 C           0.7316    8.1536    7.3960 C.ar    1  LIG1       -0.0328
     33 C           1.7746    1.7382    4.5668 C.3     1  LIG1        0.1143
     34 C           5.6112    1.7257    4.4339 C.ar    1  LIG1        0.1621
     35 C          -1.5380    8.2571    5.8583 C.ar    1  LIG1        0.0708
     36 C           4.7979    3.8219    3.5020 C.ar    1  LIG1       -0.0157
     37 C          -0.1630    9.2085    7.4538 C.ar    1  LIG1        0.0289
     38 C           1.4565    1.2032    5.9649 C.3     1  LIG1        0.0783
     39 C           6.2243    1.4302    3.2139 C.ar    1  LIG1       -0.0163
     40 C           5.4124    3.5133    2.2873 C.ar    1  LIG1       -0.0581
     41 C           6.1160    2.3189    2.1413 C.ar    1  LIG1       -0.0581
     42 C          -2.7404    8.3574    5.0269 C.ar    1  LIG1        0.0207
     43 C           6.5214   -0.1988    5.5077 C.3     1  LIG1        0.0790
     44 H          -0.0755    1.0057    7.1519 H       1  LIG1        0.2095
     45 H           5.0808    4.1255    7.6423 H       1  LIG1        0.1754
     46 H          -5.2052    9.5740    3.7122 H       1  LIG1        0.1651
     47 H           8.5514    8.3860   12.6398 H       1  LIG1        0.0344
     48 H           6.2340   10.3957   12.5177 H       1  LIG1        0.0235
     49 H           7.7985   10.5638   11.7093 H       1  LIG1        0.0235
     50 H           7.7157   10.5822   13.4738 H       1  LIG1        0.0235
     51 H           5.8269    8.2844   14.0182 H       1  LIG1        0.0235
     52 H           7.4122    8.4554   14.7751 H       1  LIG1        0.0235
     53 H           6.9930    6.9478   13.9509 H       1  LIG1        0.0235
     54 H           5.0592    7.2001   12.1261 H       1  LIG1        0.0622
     55 H           8.6364    8.5765   10.1412 H       1  LIG1        0.0833
     56 H           4.3159    6.2589    9.9730 H       1  LIG1        0.0653
     57 H          -0.9292    6.3579    5.0483 H       1  LIG1        0.0646
     58 H           1.6246    8.1761    8.0133 H       1  LIG1        0.0640
     59 H           2.7732    1.4322    4.2536 H       1  LIG1        0.0720
     60 H           1.0860    1.2574    3.8611 H       1  LIG1        0.0720
     61 H           4.2631    4.7633    3.5809 H       1  LIG1        0.0655
     62 H           0.0101   10.0533    8.1154 H       1  LIG1        0.0830
     63 H           1.6792    0.1324    6.0001 H       1  LIG1        0.0591
     64 H           2.0370    1.6991    6.7465 H       1  LIG1        0.0591
     65 H           6.7814    0.5128    3.0585 H       1  LIG1        0.0655
     66 H           5.3371    4.2042    1.4518 H       1  LIG1        0.0619
     67 H           6.5842    2.0802    1.1903 H       1  LIG1        0.0619
     68 H           6.5144   -0.6589    6.5005 H       1  LIG1        0.0660
     69 H           7.5487    0.1142    5.2943 H       1  LIG1        0.0660
     70 H           6.1771   -0.9500    4.7898 H       1  LIG1        0.0660
@<TRIPOS>BOND
     1     1    21    1
     2     1     8    1
     3     1     4    2
     4     1     3    2
     5     2    26    1
     6     2    30    1
     7     5    27    1
     8     5    33    1
     9     6    34    1
    10     6    43    1
    11     7    38    1
    12     8    25    1
    13     9    23   ar
    14     9    21   ar
    15    10    25   ar
    16    10    28   ar
    17    11    27   ar
    18    11    28   ar
    19    12    37   ar
    20    12    35   ar
    21    13    15   ar
    22    13    42   ar
    23    14    42   ar
    24    14    16   ar
    25    15    16   ar
    26    17    18    1
    27    17    20    1
    28    17    19    1
    29    18    23   ar
    30    18    22   ar
    31    21    24   ar
    32    22    24   ar
    33    25    26   ar
    34    26    27   ar
    35    28    29    1
    36    29    31   ar
    37    29    32   ar
    38    30    36   ar
    39    30    34   ar
    40    31    35   ar
    41    32    37   ar
    42    33    38    1
    43    34    39   ar
    44    35    42    1
    45    36    40   ar
    46    39    41   ar
    47    40    41   ar
    48     7    44    1
    49     8    45    1
    50    15    46    1
    51    17    47    1
    52    19    48    1
    53    19    49    1
    54    19    50    1
    55    20    51    1
    56    20    52    1
    57    20    53    1
    58    22    54    1
    59    23    55    1
    60    24    56    1
    61    31    57    1
    62    32    58    1
    63    33    59    1
    64    33    60    1
    65    36    61    1
    66    37    62    1
    67    38    63    1
    68    38    64    1
    69    39    65    1
    70    40    66    1
    71    41    67    1
    72    43    68    1
    73    43    69    1
    74    43    70    1
@<TRIPOS>MOLECULE
9939443
 70 74 0 0 0
SMALL
GASTEIGER

@<TRIPOS>ATOM
      1 S           5.7027    6.2752    7.3740 S.O2    1  LIG1        0.0908
      2 O           4.4357    3.2032    5.7441 O.3     1  LIG1       -0.4435
      3 O           5.0431    7.3134    6.6068 O.2     1  LIG1       -0.1484
      4 O           6.8566    5.5608    6.8625 O.2     1  LIG1       -0.1484
      5 O           1.8135    3.1280    4.3045 O.3     1  LIG1       -0.4715
      6 O           5.8441    1.0410    5.5157 O.3     1  LIG1       -0.4914
      7 O           1.8208    1.6929    7.1368 O.3     1  LIG1       -0.3917
      8 N           4.6058    5.0359    7.7772 N.pl3   1  LIG1       -0.1950
      9 N           7.3226    7.6092    9.0024 N.ar    1  LIG1       -0.2351
     10 N           2.5281    5.9007    7.2104 N.ar    1  LIG1       -0.2073
     11 N           1.2160    4.9669    5.4656 N.ar    1  LIG1       -0.1899
     12 N          -1.2904    9.1913    6.7212 N.ar    1  LIG1       -0.2552
     13 N          -3.5099    9.3587    4.8963 N.ar    1  LIG1       -0.5621
     14 N          -3.1581    7.2311    4.2162 N.ar    1  LIG1       -0.1535
     15 N          -4.4042    8.9147    4.0070 N.ar    1  LIG1       -0.3597
     16 N          -4.2394    7.6584    3.5801 N.ar    1  LIG1       -0.0878
     17 C           7.5019    8.6268   12.6516 C.3     1  LIG1       -0.0201
     18 C           6.9619    7.9997   11.3791 C.ar    1  LIG1       -0.0266
     19 C           7.3143   10.1471   12.6199 C.3     1  LIG1       -0.0586
     20 C           6.9168    8.0609   13.9501 C.3     1  LIG1       -0.0586
     21 C           6.1297    6.9590    8.9783 C.ar    1  LIG1        0.1969
     22 C           5.7411    7.3179   11.2997 C.ar    1  LIG1       -0.0535
     23 C           7.6989    8.1135   10.1970 C.ar    1  LIG1        0.0332
     24 C           5.3116    6.7857   10.0827 C.ar    1  LIG1       -0.0160
     25 C           3.4616    4.9826    6.9255 C.ar    1  LIG1        0.1882
     26 C           3.3843    4.0522    5.9095 C.ar    1  LIG1        0.2307
     27 C           2.1698    4.0335    5.2619 C.ar    1  LIG1        0.2641
     28 C           1.4499    5.8925    6.4121 C.ar    1  LIG1        0.1659
     29 C           0.4894    7.0055    6.5409 C.ar    1  LIG1        0.0227
     30 C           4.9666    2.9702    4.4914 C.ar    1  LIG1        0.1702
     31 C          -0.6729    7.0730    5.7522 C.ar    1  LIG1       -0.0252
     32 C           0.7215    8.0704    7.4222 C.ar    1  LIG1       -0.0328
     33 C           1.8267    1.7509    4.7065 C.3     1  LIG1        0.1143
     34 C           5.7215    1.7856    4.3690 C.ar    1  LIG1        0.1621
     35 C          -1.5271    8.1700    5.8589 C.ar    1  LIG1        0.0708
     36 C           4.8125    3.8210    3.3924 C.ar    1  LIG1       -0.0157
     37 C          -0.1783    9.1208    7.4766 C.ar    1  LIG1        0.0289
     38 C           1.0328    1.4319    5.9753 C.3     1  LIG1        0.0783
     39 C           6.2684    1.4456    3.1305 C.ar    1  LIG1       -0.0163
     40 C           5.3539    3.4634    2.1572 C.ar    1  LIG1       -0.0581
     41 C           6.0743    2.2777    2.0255 C.ar    1  LIG1       -0.0581
     42 C          -2.7208    8.2709    5.0134 C.ar    1  LIG1        0.0207
     43 C           6.5507   -0.1876    5.4286 C.3     1  LIG1        0.0790
     44 H           1.3056    1.3880    7.9036 H       1  LIG1        0.2095
     45 H           5.1399    4.1650    7.6901 H       1  LIG1        0.1754
     46 H          -5.1648    9.4978    3.6701 H       1  LIG1        0.1651
     47 H           8.5801    8.4173   12.6841 H       1  LIG1        0.0344
     48 H           6.2539   10.4171   12.5605 H       1  LIG1        0.0235
     49 H           7.8193   10.5940   11.7565 H       1  LIG1        0.0235
     50 H           7.7323   10.6096   13.5207 H       1  LIG1        0.0235
     51 H           5.8538    8.3028   14.0581 H       1  LIG1        0.0235
     52 H           7.4366    8.4808   14.8187 H       1  LIG1        0.0235
     53 H           7.0263    6.9718   13.9926 H       1  LIG1        0.0235
     54 H           5.1078    7.1911   12.1735 H       1  LIG1        0.0622
     55 H           8.6523    8.6381   10.1792 H       1  LIG1        0.0833
     56 H           4.3661    6.2590   10.0172 H       1  LIG1        0.0653
     57 H          -0.8944    6.2811    5.0401 H       1  LIG1        0.0646
     58 H           1.6087    8.0982    8.0494 H       1  LIG1        0.0640
     59 H           2.8501    1.3780    4.7785 H       1  LIG1        0.0720
     60 H           1.3579    1.2127    3.8747 H       1  LIG1        0.0720
     61 H           4.2701    4.7588    3.4667 H       1  LIG1        0.0655
     62 H          -0.0159    9.9636    8.1426 H       1  LIG1        0.0830
     63 H           0.1157    2.0242    6.0366 H       1  LIG1        0.0591
     64 H           0.7832    0.3662    5.9886 H       1  LIG1        0.0591
     65 H           6.8496    0.5401    2.9896 H       1  LIG1        0.0655
     66 H           5.2136    4.1124    1.2963 H       1  LIG1        0.0619
     67 H           6.4944    2.0041    1.0606 H       1  LIG1        0.0619
     68 H           6.5560   -0.6392    6.4253 H       1  LIG1        0.0660
     69 H           7.5920   -0.0281    5.1310 H       1  LIG1        0.0660
     70 H           6.0444   -0.8823    4.7507 H       1  LIG1        0.0660
@<TRIPOS>BOND
     1     1    21    1
     2     1     8    1
     3     1     4    2
     4     1     3    2
     5     2    26    1
     6     2    30    1
     7     5    27    1
     8     5    33    1
     9     6    34    1
    10     6    43    1
    11     7    38    1
    12     8    25    1
    13     9    23   ar
    14     9    21   ar
    15    10    25   ar
    16    10    28   ar
    17    11    27   ar
    18    11    28   ar
    19    12    37   ar
    20    12    35   ar
    21    13    15   ar
    22    13    42   ar
    23    14    42   ar
    24    14    16   ar
    25    15    16   ar
    26    17    18    1
    27    17    20    1
    28    17    19    1
    29    18    23   ar
    30    18    22   ar
    31    21    24   ar
    32    22    24   ar
    33    25    26   ar
    34    26    27   ar
    35    28    29    1
    36    29    31   ar
    37    29    32   ar
    38    30    36   ar
    39    30    34   ar
    40    31    35   ar
    41    32    37   ar
    42    33    38    1
    43    34    39   ar
    44    35    42    1
    45    36    40   ar
    46    39    41   ar
    47    40    41   ar
    48     7    44    1
    49     8    45    1
    50    15    46    1
    51    17    47    1
    52    19    48    1
    53    19    49    1
    54    19    50    1
    55    20    51    1
    56    20    52    1
    57    20    53    1
    58    22    54    1
    59    23    55    1
    60    24    56    1
    61    31    57    1
    62    32    58    1
    63    33    59    1
    64    33    60    1
    65    36    61    1
    66    37    62    1
    67    38    63    1
    68    38    64    1
    69    39    65    1
    70    40    66    1
    71    41    67    1
    72    43    68    1
    73    43    69    1
    74    43    70    1
@<TRIPOS>MOLECULE
9939443
 70 74 0 0 0
SMALL
GASTEIGER

@<TRIPOS>ATOM
      1 S           5.6360    6.1992    7.5419 S.O2    1  LIG1        0.0908
      2 O           4.4594    3.4870    5.6338 O.3     1  LIG1       -0.4435
      3 O           6.6199    5.5687    6.6595 O.2     1  LIG1       -0.1484
      4 O           6.0524    6.6646    8.8497 O.2     1  LIG1       -0.1484
      5 O           1.7452    2.9962    4.4658 O.3     1  LIG1       -0.4715
      6 O           6.9248    2.4561    5.5562 O.3     1  LIG1       -0.4914
      7 O           0.3085    0.8939    5.9145 O.3     1  LIG1       -0.3917
      8 N           4.3939    5.1284    7.8127 N.pl3   1  LIG1       -0.1950
      9 N           4.4100    7.2555    5.4500 N.ar    1  LIG1       -0.2351
     10 N           2.3576    5.9584    7.2020 N.ar    1  LIG1       -0.2073
     11 N           1.0981    5.0332    5.4279 N.ar    1  LIG1       -0.1899
     12 N          -1.5618    9.0943    6.9524 N.ar    1  LIG1       -0.2552
     13 N          -0.7317   11.6674    7.8768 N.ar    1  LIG1       -0.5621
     14 N           1.4351   11.0317    7.8601 N.ar    1  LIG1       -0.1535
     15 N           0.1194   12.6182    8.2659 N.ar    1  LIG1       -0.3597
     16 N           1.4157   12.2937    8.2582 N.ar    1  LIG1       -0.0878
     17 C           2.5912   10.4831    4.5893 C.3     1  LIG1       -0.0201
     18 C           3.4857    9.4895    5.3106 C.ar    1  LIG1       -0.0266
     19 C           3.3291   11.7878    4.3015 C.3     1  LIG1       -0.0586
     20 C           2.0087    9.9221    3.2882 C.3     1  LIG1       -0.0586
     21 C           4.9149    7.5877    6.6684 C.ar    1  LIG1        0.1969
     22 C           4.0765    9.7993    6.5498 C.ar    1  LIG1       -0.0535
     23 C           3.6994    8.2029    4.8208 C.ar    1  LIG1        0.0332
     24 C           4.7981    8.8328    7.2535 C.ar    1  LIG1       -0.0160
     25 C           3.3269    5.0801    6.8946 C.ar    1  LIG1        0.1882
     26 C           3.3117    4.1878    5.8389 C.ar    1  LIG1        0.2307
     27 C           2.0643    4.0973    5.2492 C.ar    1  LIG1        0.2641
     28 C           1.3198    5.9695    6.3660 C.ar    1  LIG1        0.1659
     29 C           0.3376    7.0517    6.5287 C.ar    1  LIG1        0.0227
     30 C           4.9430    3.1294    4.3978 C.ar    1  LIG1        0.1702
     31 C           0.7174    8.3395    6.9455 C.ar    1  LIG1       -0.0252
     32 C          -1.0216    6.8329    6.3139 C.ar    1  LIG1       -0.0328
     33 C           0.3376    2.7325    4.3232 C.3     1  LIG1        0.1143
     34 C           6.1840    2.4630    4.3982 C.ar    1  LIG1        0.1621
     35 C          -0.2434    9.3236    7.1536 C.ar    1  LIG1        0.0708
     36 C           4.2932    3.3091    3.1761 C.ar    1  LIG1       -0.0157
     37 C          -1.9190    7.8611    6.5434 C.ar    1  LIG1        0.0289
     38 C           0.0161    1.2525    4.5662 C.3     1  LIG1        0.0783
     39 C           6.6117    1.7871    3.2490 C.ar    1  LIG1       -0.0163
     40 C           4.7287    2.6378    2.0325 C.ar    1  LIG1       -0.0581
     41 C           5.8653    1.8442    2.0784 C.ar    1  LIG1       -0.0581
     42 C           0.1283   10.6586    7.6265 C.ar    1  LIG1        0.0207
     43 C           8.3371    2.4690    5.3354 C.3     1  LIG1        0.0790
     44 H           0.0754   -0.0447    6.0184 H       1  LIG1        0.2095
     45 H           4.3256    4.6373    8.6948 H       1  LIG1        0.1754
     46 H          -0.1971   13.5394    8.5485 H       1  LIG1        0.1651
     47 H           1.7384   10.7146    5.2376 H       1  LIG1        0.0344
     48 H           4.1956   11.6106    3.6556 H       1  LIG1        0.0235
     49 H           3.6867   12.2600    5.2229 H       1  LIG1        0.0235
     50 H           2.6670   12.5033    3.8042 H       1  LIG1        0.0235
     51 H           2.8100    9.6571    2.5861 H       1  LIG1        0.0235
     52 H           1.3531   10.6426    2.7934 H       1  LIG1        0.0235
     53 H           1.4137    9.0199    3.4850 H       1  LIG1        0.0235
     54 H           3.9332   10.7748    7.0097 H       1  LIG1        0.0622
     55 H           3.2585    7.8484    3.8923 H       1  LIG1        0.0833
     56 H           5.2080    9.0455    8.2315 H       1  LIG1        0.0653
     57 H           1.7639    8.5610    7.1216 H       1  LIG1        0.0646
     58 H          -1.3827    5.8608    6.0014 H       1  LIG1        0.0640
     59 H           0.0410    2.9909    3.2996 H       1  LIG1        0.0720
     60 H          -0.2770    3.3035    5.0235 H       1  LIG1        0.0720
     61 H           3.4164    3.9342    3.0754 H       1  LIG1        0.0655
     62 H          -2.9858    7.7138    6.4114 H       1  LIG1        0.0830
     63 H          -1.0559    1.0852    4.4095 H       1  LIG1        0.0591
     64 H           0.5795    0.5967    3.8971 H       1  LIG1        0.0591
     65 H           7.5054    1.1809    3.2536 H       1  LIG1        0.0655
     66 H           4.1591    2.7156    1.1114 H       1  LIG1        0.0619
     67 H           6.1866    1.2864    1.2045 H       1  LIG1        0.0619
     68 H           8.8431    2.5325    6.3022 H       1  LIG1        0.0660
     69 H           8.6439    3.3282    4.7262 H       1  LIG1        0.0660
     70 H           8.6731    1.5333    4.8751 H       1  LIG1        0.0660
@<TRIPOS>BOND
     1     1    21    1
     2     1     8    1
     3     1     4    2
     4     1     3    2
     5     2    26    1
     6     2    30    1
     7     5    27    1
     8     5    33    1
     9     6    34    1
    10     6    43    1
    11     7    38    1
    12     8    25    1
    13     9    23   ar
    14     9    21   ar
    15    10    25   ar
    16    10    28   ar
    17    11    27   ar
    18    11    28   ar
    19    12    37   ar
    20    12    35   ar
    21    13    15   ar
    22    13    42   ar
    23    14    42   ar
    24    14    16   ar
    25    15    16   ar
    26    17    18    1
    27    17    20    1
    28    17    19    1
    29    18    23   ar
    30    18    22   ar
    31    21    24   ar
    32    22    24   ar
    33    25    26   ar
    34    26    27   ar
    35    28    29    1
    36    29    31   ar
    37    29    32   ar
    38    30    36   ar
    39    30    34   ar
    40    31    35   ar
    41    32    37   ar
    42    33    38    1
    43    34    39   ar
    44    35    42    1
    45    36    40   ar
    46    39    41   ar
    47    40    41   ar
    48     7    44    1
    49     8    45    1
    50    15    46    1
    51    17    47    1
    52    19    48    1
    53    19    49    1
    54    19    50    1
    55    20    51    1
    56    20    52    1
    57    20    53    1
    58    22    54    1
    59    23    55    1
    60    24    56    1
    61    31    57    1
    62    32    58    1
    63    33    59    1
    64    33    60    1
    65    36    61    1
    66    37    62    1
    67    38    63    1
    68    38    64    1
    69    39    65    1
    70    40    66    1
    71    41    67    1
    72    43    68    1
    73    43    69    1
    74    43    70    1
@<TRIPOS>MOLECULE
9939443
 70 74 0 0 0
SMALL
GASTEIGER

@<TRIPOS>ATOM
      1 S           5.7363    5.9996    7.4604 S.O2    1  LIG1        0.0908
      2 O           4.3448    3.5143    5.7704 O.3     1  LIG1       -0.4435
      3 O           5.5447    7.1507    6.6069 O.2     1  LIG1       -0.1484
      4 O           6.5901    4.9016    7.0606 O.2     1  LIG1       -0.1484
      5 O           1.9434    3.3647    4.1976 O.3     1  LIG1       -0.4715
      6 O           5.4598    1.1315    5.6769 O.3     1  LIG1       -0.4914
      7 O           0.8606    3.8294    1.4601 O.3     1  LIG1       -0.3917
      8 N           4.2357    5.3893    7.9411 N.pl3   1  LIG1       -0.1950
      9 N           5.5066    7.5093    9.6291 N.ar    1  LIG1       -0.2351
     10 N           2.2521    6.1248    7.1895 N.ar    1  LIG1       -0.2073
     11 N           1.0838    5.2018    5.3509 N.ar    1  LIG1       -0.1899
     12 N          -1.8645    9.0174    6.9031 N.ar    1  LIG1       -0.2552
     13 N          -2.2223   10.2147    9.5012 N.ar    1  LIG1       -0.5621
     14 N          -0.3127    9.2581   10.2441 N.ar    1  LIG1       -0.1535
     15 N          -1.9003   10.5411   10.7573 N.ar    1  LIG1       -0.3597
     16 N          -0.7775    9.9984   11.2400 N.ar    1  LIG1       -0.0878
     17 C           7.1059    7.7918   13.0767 C.3     1  LIG1       -0.0201
     18 C           6.8571    7.3124   11.6523 C.ar    1  LIG1       -0.0266
     19 C           5.8278    7.7517   13.9294 C.3     1  LIG1       -0.0586
     20 C           8.2094    7.0371   13.8309 C.3     1  LIG1       -0.0586
     21 C           6.3162    6.5772    9.0626 C.ar    1  LIG1        0.1969
     22 C           7.6360    6.3315   11.0179 C.ar    1  LIG1       -0.0535
     23 C           5.8275    7.8781   10.8908 C.ar    1  LIG1        0.0332
     24 C           7.3727    5.9560    9.7013 C.ar    1  LIG1       -0.0160
     25 C           3.2607    5.2782    6.9195 C.ar    1  LIG1        0.1882
     26 C           3.2876    4.3692    5.8811 C.ar    1  LIG1        0.2307
     27 C           2.1053    4.3341    5.1619 C.ar    1  LIG1        0.2641
     28 C           1.2128    6.0865    6.3501 C.ar    1  LIG1        0.1659
     29 C           0.1517    7.0825    6.5416 C.ar    1  LIG1        0.0227
     30 C           4.7956    3.0895    4.5352 C.ar    1  LIG1        0.1702
     31 C          -0.0021    7.7591    7.7639 C.ar    1  LIG1       -0.0252
     32 C          -0.7337    7.4135    5.5090 C.ar    1  LIG1       -0.0328
     33 C           0.5975    3.1298    3.7715 C.3     1  LIG1        0.1143
     34 C           5.3936    1.8155    4.4882 C.ar    1  LIG1        0.1621
     35 C          -1.0122    8.7053    7.9124 C.ar    1  LIG1        0.0708
     36 C           4.7447    3.8781    3.3786 C.ar    1  LIG1       -0.0157
     37 C          -1.7037    8.3744    5.7310 C.ar    1  LIG1        0.0289
     38 C           0.1543    4.0933    2.6708 C.3     1  LIG1        0.0783
     39 C           5.8574    1.3195    3.2643 C.ar    1  LIG1       -0.0163
     40 C           5.1976    3.3665    2.1614 C.ar    1  LIG1       -0.0581
     41 C           5.7464    2.0883    2.1032 C.ar    1  LIG1       -0.0581
     42 C          -1.1959    9.3979    9.1908 C.ar    1  LIG1        0.0207
     43 C           6.2658   -0.0383    5.7057 C.3     1  LIG1        0.0790
     44 H           0.6352    4.5427    0.8393 H       1  LIG1        0.2095
     45 H           3.8682    5.9992    8.6741 H       1  LIG1        0.1754
     46 H          -2.4770   11.1621   11.3178 H       1  LIG1        0.1651
     47 H           7.4311    8.8385   13.0031 H       1  LIG1        0.0344
     48 H           5.4091    6.7400   13.9713 H       1  LIG1        0.0235
     49 H           5.0538    8.4182   13.5365 H       1  LIG1        0.0235
     50 H           6.0335    8.0765   14.9558 H       1  LIG1        0.0235
     51 H           7.9642    5.9751   13.9443 H       1  LIG1        0.0235
     52 H           8.3496    7.4544   14.8350 H       1  LIG1        0.0235
     53 H           9.1726    7.1144   13.3141 H       1  LIG1        0.0235
     54 H           8.4522    5.8337   11.5340 H       1  LIG1        0.0622
     55 H           5.2019    8.6731   11.2902 H       1  LIG1        0.0833
     56 H           7.9483    5.1748    9.2162 H       1  LIG1        0.0653
     57 H           0.6635    7.5387    8.5955 H       1  LIG1        0.0646
     58 H          -0.6606    6.9417    4.5339 H       1  LIG1        0.0640
     59 H          -0.0945    3.1440    4.6243 H       1  LIG1        0.0720
     60 H           0.5834    2.1071    3.3747 H       1  LIG1        0.0720
     61 H           4.3354    4.8828    3.3995 H       1  LIG1        0.0655
     62 H          -2.3965    8.6631    4.9454 H       1  LIG1        0.0830
     63 H          -0.9129    3.9593    2.4687 H       1  LIG1        0.0591
     64 H           0.3366    5.1366    2.9384 H       1  LIG1        0.0591
     65 H           6.3004    0.3333    3.1783 H       1  LIG1        0.0655
     66 H           5.1143    3.9640    1.2573 H       1  LIG1        0.0619
     67 H           6.0927    1.6889    1.1533 H       1  LIG1        0.0619
     68 H           6.3347   -0.3722    6.7455 H       1  LIG1        0.0660
     69 H           7.2843    0.1624    5.3553 H       1  LIG1        0.0660
     70 H           5.8004   -0.8431    5.1277 H       1  LIG1        0.0660
@<TRIPOS>BOND
     1     1    21    1
     2     1     8    1
     3     1     4    2
     4     1     3    2
     5     2    26    1
     6     2    30    1
     7     5    27    1
     8     5    33    1
     9     6    34    1
    10     6    43    1
    11     7    38    1
    12     8    25    1
    13     9    23   ar
    14     9    21   ar
    15    10    25   ar
    16    10    28   ar
    17    11    27   ar
    18    11    28   ar
    19    12    37   ar
    20    12    35   ar
    21    13    15   ar
    22    13    42   ar
    23    14    42   ar
    24    14    16   ar
    25    15    16   ar
    26    17    18    1
    27    17    20    1
    28    17    19    1
    29    18    23   ar
    30    18    22   ar
    31    21    24   ar
    32    22    24   ar
    33    25    26   ar
    34    26    27   ar
    35    28    29    1
    36    29    31   ar
    37    29    32   ar
    38    30    36   ar
    39    30    34   ar
    40    31    35   ar
    41    32    37   ar
    42    33    38    1
    43    34    39   ar
    44    35    42    1
    45    36    40   ar
    46    39    41   ar
    47    40    41   ar
    48     7    44    1
    49     8    45    1
    50    15    46    1
    51    17    47    1
    52    19    48    1
    53    19    49    1
    54    19    50    1
    55    20    51    1
    56    20    52    1
    57    20    53    1
    58    22    54    1
    59    23    55    1
    60    24    56    1
    61    31    57    1
    62    32    58    1
    63    33    59    1
    64    33    60    1
    65    36    61    1
    66    37    62    1
    67    38    63    1
    68    38    64    1
    69    39    65    1
    70    40    66    1
    71    41    67    1
    72    43    68    1
    73    43    69    1
    74    43    70    1
@<TRIPOS>MOLECULE
9939443
 70 74 0 0 0
SMALL
GASTEIGER

@<TRIPOS>ATOM
      1 S           4.1214    3.9846    9.1252 S.O2    1  LIG1        0.0908
      2 O           4.4468    3.3170    5.6658 O.3     1  LIG1       -0.4435
      3 O           4.6704    4.6532   10.2881 O.2     1  LIG1       -0.1484
      4 O           4.6457    2.7042    8.6977 O.2     1  LIG1       -0.1484
      5 O           1.8547    3.1059    4.1196 O.3     1  LIG1       -0.4715
      6 O           6.2003    1.3749    5.5622 O.3     1  LIG1       -0.4914
      7 O           2.5152    1.0114    6.6453 O.3     1  LIG1       -0.3917
      8 N           4.2693    5.0975    7.8532 N.pl3   1  LIG1       -0.1950
      9 N           1.7906    2.6934    8.8478 N.ar    1  LIG1       -0.2351
     10 N           2.3052    5.8691    7.0739 N.ar    1  LIG1       -0.2073
     11 N           1.1192    4.8689    5.2900 N.ar    1  LIG1       -0.1899
     12 N          -1.7354    8.8359    6.6876 N.ar    1  LIG1       -0.2552
     13 N          -0.5518    8.8853   10.1616 N.ar    1  LIG1       -0.5621
     14 N          -1.9220   10.3370    9.0933 N.ar    1  LIG1       -0.1535
     15 N          -1.0598    9.8480   10.9489 N.ar    1  LIG1       -0.3597
     16 N          -1.8695   10.7288   10.3575 N.ar    1  LIG1       -0.0878
     17 C          -1.8016    3.1285   10.0569 C.3     1  LIG1       -0.0201
     18 C          -0.3206    3.3721    9.8426 C.ar    1  LIG1       -0.0266
     19 C          -2.5909    3.4695    8.7899 C.3     1  LIG1       -0.0586
     20 C          -2.1113    1.6975   10.5138 C.3     1  LIG1       -0.0586
     21 C           2.3496    3.7988    9.4120 C.ar    1  LIG1        0.1969
     22 C           0.2996    4.5125   10.3737 C.ar    1  LIG1       -0.0535
     23 C           0.4753    2.5039    9.1007 C.ar    1  LIG1        0.0332
     24 C           1.6631    4.7266   10.1778 C.ar    1  LIG1       -0.0160
     25 C           3.2920    4.9923    6.8382 C.ar    1  LIG1        0.1882
     26 C           3.3179    4.0570    5.8217 C.ar    1  LIG1        0.2307
     27 C           2.1335    3.9869    5.1189 C.ar    1  LIG1        0.2641
     28 C           1.2553    5.7941    6.2495 C.ar    1  LIG1        0.1659
     29 C           0.2087    6.8130    6.4044 C.ar    1  LIG1        0.0227
     30 C           4.9722    3.0423    4.4203 C.ar    1  LIG1        0.1702
     31 C           0.0445    7.5086    7.6136 C.ar    1  LIG1       -0.0252
     32 C          -0.6396    7.1582    5.3459 C.ar    1  LIG1       -0.0328
     33 C           1.9298    1.7033    4.4088 C.3     1  LIG1        0.1143
     34 C           5.8437    1.9408    4.3659 C.ar    1  LIG1        0.1621
     35 C          -0.9283    8.4995    7.7233 C.ar    1  LIG1        0.0708
     36 C           4.6942    3.7566    3.2506 C.ar    1  LIG1       -0.0157
     37 C          -1.5742    8.1634    5.5292 C.ar    1  LIG1        0.0289
     38 C           1.4159    1.2467    5.7735 C.3     1  LIG1        0.0783
     39 C           6.3645    1.5175    3.1409 C.ar    1  LIG1       -0.0163
     40 C           5.2012    3.3165    2.0254 C.ar    1  LIG1       -0.0581
     41 C           6.0226    2.1926    1.9684 C.ar    1  LIG1       -0.0581
     42 C          -1.1208    9.2216    8.9827 C.ar    1  LIG1        0.0207
     43 C           6.2614   -0.0461    5.5650 C.3     1  LIG1        0.0790
     44 H           2.4064    1.5525    7.4567 H       1  LIG1        0.2095
     45 H           4.3311    6.0382    8.2361 H       1  LIG1        0.1754
     46 H          -0.8457    9.9083   11.9410 H       1  LIG1        0.1651
     47 H          -2.1491    3.7952   10.8577 H       1  LIG1        0.0344
     48 H          -2.3062    2.8263    7.9504 H       1  LIG1        0.0235
     49 H          -2.4173    4.5077    8.4877 H       1  LIG1        0.0235
     50 H          -3.6656    3.3446    8.9593 H       1  LIG1        0.0235
     51 H          -1.9039    0.9606    9.7291 H       1  LIG1        0.0235
     52 H          -3.1691    1.6016   10.7791 H       1  LIG1        0.0235
     53 H          -1.5181    1.4278   11.3931 H       1  LIG1        0.0235
     54 H          -0.2766    5.2374   10.9495 H       1  LIG1        0.0622
     55 H           0.0618    1.5974    8.6625 H       1  LIG1        0.0833
     56 H           2.1587    5.5937   10.6000 H       1  LIG1        0.0653
     57 H           0.6781    7.2817    8.4670 H       1  LIG1        0.0646
     58 H          -0.5620    6.6661    4.3809 H       1  LIG1        0.0640
     59 H           2.9400    1.3361    4.2128 H       1  LIG1        0.0720
     60 H           1.2863    1.2415    3.6491 H       1  LIG1        0.0720
     61 H           4.0666    4.6425    3.2591 H       1  LIG1        0.0655
     62 H          -2.2351    8.4671    4.7227 H       1  LIG1        0.0830
     63 H           0.7170    1.9565    6.2202 H       1  LIG1        0.0591
     64 H           0.9078    0.2816    5.6692 H       1  LIG1        0.0591
     65 H           7.0514    0.6785    3.0834 H       1  LIG1        0.0655
     66 H           4.9525    3.8534    1.1122 H       1  LIG1        0.0619
     67 H           6.4176    1.8552    1.0141 H       1  LIG1        0.0619
     68 H           6.2711   -0.3748    6.6071 H       1  LIG1        0.0660
     69 H           7.1868   -0.3948    5.0982 H       1  LIG1        0.0660
     70 H           5.3867   -0.4883    5.0781 H       1  LIG1        0.0660
@<TRIPOS>BOND
     1     1    21    1
     2     1     8    1
     3     1     4    2
     4     1     3    2
     5     2    26    1
     6     2    30    1
     7     5    27    1
     8     5    33    1
     9     6    34    1
    10     6    43    1
    11     7    38    1
    12     8    25    1
    13     9    23   ar
    14     9    21   ar
    15    10    25   ar
    16    10    28   ar
    17    11    27   ar
    18    11    28   ar
    19    12    37   ar
    20    12    35   ar
    21    13    15   ar
    22    13    42   ar
    23    14    42   ar
    24    14    16   ar
    25    15    16   ar
    26    17    18    1
    27    17    20    1
    28    17    19    1
    29    18    23   ar
    30    18    22   ar
    31    21    24   ar
    32    22    24   ar
    33    25    26   ar
    34    26    27   ar
    35    28    29    1
    36    29    31   ar
    37    29    32   ar
    38    30    36   ar
    39    30    34   ar
    40    31    35   ar
    41    32    37   ar
    42    33    38    1
    43    34    39   ar
    44    35    42    1
    45    36    40   ar
    46    39    41   ar
    47    40    41   ar
    48     7    44    1
    49     8    45    1
    50    15    46    1
    51    17    47    1
    52    19    48    1
    53    19    49    1
    54    19    50    1
    55    20    51    1
    56    20    52    1
    57    20    53    1
    58    22    54    1
    59    23    55    1
    60    24    56    1
    61    31    57    1
    62    32    58    1
    63    33    59    1
    64    33    60    1
    65    36    61    1
    66    37    62    1
    67    38    63    1
    68    38    64    1
    69    39    65    1
    70    40    66    1
    71    41    67    1
    72    43    68    1
    73    43    69    1
    74    43    70    1
@<TRIPOS>MOLECULE
9939443
 70 74 0 0 0
SMALL
GASTEIGER

@<TRIPOS>ATOM
      1 S           5.7175    5.9550    7.4253 S.O2    1  LIG1        0.0908
      2 O           4.3101    3.2673    5.8127 O.3     1  LIG1       -0.4435
      3 O           5.3822    7.1296    6.6462 O.2     1  LIG1       -0.1484
      4 O           6.6449    4.9593    6.9326 O.2     1  LIG1       -0.1484
      5 O           1.7451    3.2276    4.2567 O.3     1  LIG1       -0.4715
      6 O           5.5932    1.0056    5.5781 O.3     1  LIG1       -0.4914
      7 O           0.1551    1.5077    6.2357 O.3     1  LIG1       -0.3917
      8 N           4.3036    5.1652    7.9261 N.pl3   1  LIG1       -0.1950
      9 N           5.3245    6.9628    9.8404 N.ar    1  LIG1       -0.2351
     10 N           2.3425    5.9898    7.1833 N.ar    1  LIG1       -0.2073
     11 N           1.1338    5.0750    5.3705 N.ar    1  LIG1       -0.1899
     12 N          -1.4878    9.2318    6.6757 N.ar    1  LIG1       -0.2552
     13 N          -3.2919    7.4018    4.0523 N.ar    1  LIG1       -0.5621
     14 N          -3.7766    9.3827    5.0339 N.ar    1  LIG1       -0.1535
     15 N          -4.4126    7.9812    3.5999 N.ar    1  LIG1       -0.3597
     16 N          -4.7378    9.1527    4.1508 N.ar    1  LIG1       -0.0878
     17 C           7.2824    7.4616   13.0666 C.3     1  LIG1       -0.0201
     18 C           6.9931    7.0988   11.6160 C.ar    1  LIG1       -0.0266
     19 C           6.3522    6.7137   14.0340 C.3     1  LIG1       -0.0586
     20 C           8.7322    7.2367   13.5166 C.3     1  LIG1       -0.0586
     21 C           6.3168    6.5116    9.0233 C.ar    1  LIG1        0.1969
     22 C           7.9628    6.6078   10.7275 C.ar    1  LIG1       -0.0535
     23 C           5.7035    7.2728   11.1005 C.ar    1  LIG1        0.0332
     24 C           7.6275    6.3032    9.4080 C.ar    1  LIG1       -0.0160
     25 C           3.2902    5.0756    6.9448 C.ar    1  LIG1        0.1882
     26 C           3.2742    4.1443    5.9244 C.ar    1  LIG1        0.2307
     27 C           2.0885    4.1294    5.2170 C.ar    1  LIG1        0.2641
     28 C           1.3093    5.9897    6.3345 C.ar    1  LIG1        0.1659
     29 C           0.3334    7.0861    6.4596 C.ar    1  LIG1        0.0227
     30 C           4.8959    3.0293    4.5837 C.ar    1  LIG1        0.1702
     31 C          -0.8236    7.1434    5.6671 C.ar    1  LIG1       -0.0252
     32 C           0.5414    8.1407    7.3622 C.ar    1  LIG1       -0.0328
     33 C           1.8589    1.8256    4.5313 C.3     1  LIG1        0.1143
     34 C           5.5840    1.8046    4.4611 C.ar    1  LIG1        0.1621
     35 C          -1.7010    8.2193    5.7957 C.ar    1  LIG1        0.0708
     36 C           4.8368    3.9106    3.4986 C.ar    1  LIG1       -0.0157
     37 C          -0.3781    9.1712    7.4334 C.ar    1  LIG1        0.0289
     38 C           1.5357    1.3281    5.9429 C.3     1  LIG1        0.0783
     39 C           6.1491    1.4543    3.2314 C.ar    1  LIG1       -0.0163
     40 C           5.3978    3.5447    2.2740 C.ar    1  LIG1       -0.0581
     41 C           6.0451    2.3184    2.1391 C.ar    1  LIG1       -0.0581
     42 C          -2.9032    8.3158    4.9663 C.ar    1  LIG1        0.0207
     43 C           6.4529   -0.1259    5.5578 C.3     1  LIG1        0.0790
     44 H           0.0062    1.1633    7.1328 H       1  LIG1        0.2095
     45 H           3.9475    5.6795    8.7380 H       1  LIG1        0.1754
     46 H          -4.9861    7.5567    2.8774 H       1  LIG1        0.1651
     47 H           7.0837    8.5372   13.1679 H       1  LIG1        0.0344
     48 H           6.4518    5.6281   13.9226 H       1  LIG1        0.0235
     49 H           5.3007    6.9705   13.8688 H       1  LIG1        0.0235
     50 H           6.5827    6.9708   15.0739 H       1  LIG1        0.0235
     51 H           9.0122    6.1787   13.4560 H       1  LIG1        0.0235
     52 H           8.8689    7.5562   14.5558 H       1  LIG1        0.0235
     53 H           9.4338    7.8140   12.9051 H       1  LIG1        0.0235
     54 H           8.9894    6.4414   11.0443 H       1  LIG1        0.0622
     55 H           4.9033    7.6781   11.7157 H       1  LIG1        0.0833
     56 H           8.3615    5.8934    8.7220 H       1  LIG1        0.0653
     57 H          -1.0319    6.3560    4.9459 H       1  LIG1        0.0646
     58 H           1.4217    8.1720    7.9991 H       1  LIG1        0.0640
     59 H           2.8452    1.4775    4.2236 H       1  LIG1        0.0720
     60 H           1.1530    1.3478    3.8409 H       1  LIG1        0.0720
     61 H           4.3462    4.8764    3.5746 H       1  LIG1        0.0655
     62 H          -0.2358   10.0026    8.1180 H       1  LIG1        0.0830
     63 H           1.7518    0.2559    6.0017 H       1  LIG1        0.0591
     64 H           2.1180    1.8332    6.7158 H       1  LIG1        0.0591
     65 H           6.6603    0.5089    3.0847 H       1  LIG1        0.0655
     66 H           5.3228    4.2160    1.4218 H       1  LIG1        0.0619
     67 H           6.4717    2.0335    1.1802 H       1  LIG1        0.0619
     68 H           6.4615   -0.5564    6.5639 H       1  LIG1        0.0660
     69 H           7.4822    0.1518    5.3073 H       1  LIG1        0.0660
     70 H           6.0701   -0.8888    4.8726 H       1  LIG1        0.0660
@<TRIPOS>BOND
     1     1    21    1
     2     1     8    1
     3     1     4    2
     4     1     3    2
     5     2    26    1
     6     2    30    1
     7     5    27    1
     8     5    33    1
     9     6    34    1
    10     6    43    1
    11     7    38    1
    12     8    25    1
    13     9    23   ar
    14     9    21   ar
    15    10    25   ar
    16    10    28   ar
    17    11    27   ar
    18    11    28   ar
    19    12    37   ar
    20    12    35   ar
    21    13    15   ar
    22    13    42   ar
    23    14    42   ar
    24    14    16   ar
    25    15    16   ar
    26    17    18    1
    27    17    20    1
    28    17    19    1
    29    18    23   ar
    30    18    22   ar
    31    21    24   ar
    32    22    24   ar
    33    25    26   ar
    34    26    27   ar
    35    28    29    1
    36    29    31   ar
    37    29    32   ar
    38    30    36   ar
    39    30    34   ar
    40    31    35   ar
    41    32    37   ar
    42    33    38    1
    43    34    39   ar
    44    35    42    1
    45    36    40   ar
    46    39    41   ar
    47    40    41   ar
    48     7    44    1
    49     8    45    1
    50    15    46    1
    51    17    47    1
    52    19    48    1
    53    19    49    1
    54    19    50    1
    55    20    51    1
    56    20    52    1
    57    20    53    1
    58    22    54    1
    59    23    55    1
    60    24    56    1
    61    31    57    1
    62    32    58    1
    63    33    59    1
    64    33    60    1
    65    36    61    1
    66    37    62    1
    67    38    63    1
    68    38    64    1
    69    39    65    1
    70    40    66    1
    71    41    67    1
    72    43    68    1
    73    43    69    1
    74    43    70    1
@<TRIPOS>MOLECULE
9939443
 70 74 0 0 0
SMALL
GASTEIGER

@<TRIPOS>ATOM
      1 S           5.7491    6.2923    7.1985 S.O2    1  LIG1        0.0908
      2 O           4.4976    3.2467    5.7827 O.3     1  LIG1       -0.4435
      3 O           5.2084    6.9891    6.0482 O.2     1  LIG1       -0.1484
      4 O           7.0075    5.5768    7.1088 O.2     1  LIG1       -0.1484
      5 O           1.8681    3.0672    4.3750 O.3     1  LIG1       -0.4715
      6 O           5.9437    1.0947    5.4844 O.3     1  LIG1       -0.4914
      7 O           1.8549    1.6804    7.2193 O.3     1  LIG1       -0.3917
      8 N           4.6393    5.1434    7.7710 N.pl3   1  LIG1       -0.1950
      9 N           6.9896    7.4539    9.2591 N.ar    1  LIG1       -0.2351
     10 N           2.5232    5.9168    7.2260 N.ar    1  LIG1       -0.2073
     11 N           1.2065    4.8805    5.5399 N.ar    1  LIG1       -0.1899
     12 N          -1.5751    8.8868    6.9148 N.ar    1  LIG1       -0.2552
     13 N          -1.1735   10.9932    8.8412 N.ar    1  LIG1       -0.5621
     14 N           0.8479   10.1478    9.4015 N.ar    1  LIG1       -0.1535
     15 N          -0.5170   11.7104    9.7595 N.ar    1  LIG1       -0.3597
     16 N           0.6840   11.2465   10.1236 N.ar    1  LIG1       -0.0878
     17 C           6.2148   10.2800   11.7288 C.3     1  LIG1       -0.0201
     18 C           6.0752    9.2551   10.6157 C.ar    1  LIG1       -0.0266
     19 C           7.4224   10.0799   12.6533 C.3     1  LIG1       -0.0586
     20 C           6.2536   11.7009   11.1521 C.3     1  LIG1       -0.0586
     21 C           5.8227    7.4487    8.5660 C.ar    1  LIG1        0.1969
     22 C           4.8821    9.1903    9.8759 C.ar    1  LIG1       -0.0535
     23 C           7.0843    8.3598   10.2588 C.ar    1  LIG1        0.0332
     24 C           4.7515    8.2854    8.8250 C.ar    1  LIG1       -0.0160
     25 C           3.4768    5.0090    6.9619 C.ar    1  LIG1        0.1882
     26 C           3.4169    4.0561    5.9620 C.ar    1  LIG1        0.2307
     27 C           2.1967    3.9879    5.3288 C.ar    1  LIG1        0.2641
     28 C           1.4192    5.8307    6.4685 C.ar    1  LIG1        0.1659
     29 C           0.3812    6.8663    6.6372 C.ar    1  LIG1        0.0227
     30 C           5.0110    3.0366    4.5182 C.ar    1  LIG1        0.1702
     31 C           0.5255    7.9072    7.5700 C.ar    1  LIG1       -0.0252
     32 C          -0.7821    6.8742    5.8548 C.ar    1  LIG1       -0.0328
     33 C           1.9210    1.6954    4.7911 C.3     1  LIG1        0.1143
     34 C           5.7879    1.8728    4.3638 C.ar    1  LIG1        0.1621
     35 C          -0.4530    8.8944    7.6776 C.ar    1  LIG1        0.0708
     36 C           4.8306    3.9040    3.4362 C.ar    1  LIG1       -0.0157
     37 C          -1.7141    7.8838    6.0267 C.ar    1  LIG1        0.0289
     38 C           1.1076    1.3666    6.0446 C.3     1  LIG1        0.0783
     39 C           6.3030    1.5480    3.1064 C.ar    1  LIG1       -0.0163
     40 C           5.3535    3.5723    2.1850 C.ar    1  LIG1       -0.0581
     41 C           6.0774    2.3933    2.0183 C.ar    1  LIG1       -0.0581
     42 C          -0.2857   10.0024    8.6233 C.ar    1  LIG1        0.0207
     43 C           7.0732    0.2306    5.4986 C.3     1  LIG1        0.0790
     44 H           1.3417    1.3559    7.9794 H       1  LIG1        0.2095
     45 H           5.1548    4.2656    7.8560 H       1  LIG1        0.1754
     46 H          -0.9060   12.5600   10.1588 H       1  LIG1        0.1651
     47 H           5.3210   10.1913   12.3613 H       1  LIG1        0.0344
     48 H           8.3694   10.2187   12.1193 H       1  LIG1        0.0235
     49 H           7.4224    9.0783   13.0965 H       1  LIG1        0.0235
     50 H           7.4018   10.8044   13.4753 H       1  LIG1        0.0235
     51 H           7.1036   11.8313   10.4726 H       1  LIG1        0.0235
     52 H           6.3416   12.4442   11.9520 H       1  LIG1        0.0235
     53 H           5.3418   11.9324   10.5911 H       1  LIG1        0.0235
     54 H           4.0514    9.8561   10.1072 H       1  LIG1        0.0622
     55 H           8.0416    8.3372   10.7721 H       1  LIG1        0.0833
     56 H           3.8472    8.2430    8.2304 H       1  LIG1        0.0653
     57 H           1.4062    7.9495    8.2045 H       1  LIG1        0.0646
     58 H          -0.9616    6.1060    5.1071 H       1  LIG1        0.0640
     59 H           2.9546    1.3595    4.8934 H       1  LIG1        0.0720
     60 H           1.4911    1.1324    3.9547 H       1  LIG1        0.0720
     61 H           4.2835    4.8368    3.5379 H       1  LIG1        0.0655
     62 H          -2.6218    7.9153    5.4301 H       1  LIG1        0.0830
     63 H           0.1672    1.9240    6.0716 H       1  LIG1        0.0591
     64 H           0.8989    0.2925    6.0707 H       1  LIG1        0.0591
     65 H           6.8685    0.6370    2.9419 H       1  LIG1        0.0655
     66 H           5.1916    4.2350    1.3382 H       1  LIG1        0.0619
     67 H           6.4725    2.1334    1.0391 H       1  LIG1        0.0619
     68 H           7.2151   -0.1152    6.5272 H       1  LIG1        0.0660
     69 H           7.9880    0.7507    5.1940 H       1  LIG1        0.0660
     70 H           6.8921   -0.6486    4.8728 H       1  LIG1        0.0660
@<TRIPOS>BOND
     1     1    21    1
     2     1     8    1
     3     1     4    2
     4     1     3    2
     5     2    26    1
     6     2    30    1
     7     5    27    1
     8     5    33    1
     9     6    34    1
    10     6    43    1
    11     7    38    1
    12     8    25    1
    13     9    23   ar
    14     9    21   ar
    15    10    25   ar
    16    10    28   ar
    17    11    27   ar
    18    11    28   ar
    19    12    37   ar
    20    12    35   ar
    21    13    15   ar
    22    13    42   ar
    23    14    42   ar
    24    14    16   ar
    25    15    16   ar
    26    17    18    1
    27    17    20    1
    28    17    19    1
    29    18    23   ar
    30    18    22   ar
    31    21    24   ar
    32    22    24   ar
    33    25    26   ar
    34    26    27   ar
    35    28    29    1
    36    29    31   ar
    37    29    32   ar
    38    30    36   ar
    39    30    34   ar
    40    31    35   ar
    41    32    37   ar
    42    33    38    1
    43    34    39   ar
    44    35    42    1
    45    36    40   ar
    46    39    41   ar
    47    40    41   ar
    48     7    44    1
    49     8    45    1
    50    15    46    1
    51    17    47    1
    52    19    48    1
    53    19    49    1
    54    19    50    1
    55    20    51    1
    56    20    52    1
    57    20    53    1
    58    22    54    1
    59    23    55    1
    60    24    56    1
    61    31    57    1
    62    32    58    1
    63    33    59    1
    64    33    60    1
    65    36    61    1
    66    37    62    1
    67    38    63    1
    68    38    64    1
    69    39    65    1
    70    40    66    1
    71    41    67    1
    72    43    68    1
    73    43    69    1
    74    43    70    1
@<TRIPOS>MOLECULE
9939443
 70 74 0 0 0
SMALL
GASTEIGER

@<TRIPOS>ATOM
      1 S           3.8831    3.9070    9.1201 S.O2    1  LIG1        0.0908
      2 O           4.1736    3.1103    5.6973 O.3     1  LIG1       -0.4435
      3 O           3.1997    2.7397    8.5967 O.2     1  LIG1       -0.1484
      4 O           3.2476    4.7539   10.1108 O.2     1  LIG1       -0.1484
      5 O           1.8122    3.2641    4.1190 O.3     1  LIG1       -0.4715
      6 O           5.5100    0.8759    5.5762 O.3     1  LIG1       -0.4914
      7 O          -1.1680    2.9542    4.7221 O.3     1  LIG1       -0.3917
      8 N           4.3663    4.9150    7.8310 N.pl3   1  LIG1       -0.1950
      9 N           6.3038    4.3586   10.1328 N.ar    1  LIG1       -0.2351
     10 N           2.5042    6.0239    7.0718 N.ar    1  LIG1       -0.2073
     11 N           1.2072    5.2364    5.2399 N.ar    1  LIG1       -0.1899
     12 N          -1.3017    9.3411    6.7989 N.ar    1  LIG1       -0.2552
     13 N          -2.0478    8.7191    3.2536 N.ar    1  LIG1       -0.5621
     14 N          -2.9333   10.2488    4.6675 N.ar    1  LIG1       -0.1535
     15 N          -2.9622    9.5234    2.6932 N.ar    1  LIG1       -0.3597
     16 N          -3.5099   10.4431    3.4895 N.ar    1  LIG1       -0.0878
     17 C           9.0484    2.2369   11.7744 C.3     1  LIG1       -0.0201
     18 C           7.7869    2.6475   11.0338 C.ar    1  LIG1       -0.0266
     19 C          10.0113    1.4841   10.8500 C.3     1  LIG1       -0.0586
     20 C           9.7965    3.3792   12.4713 C.3     1  LIG1       -0.0586
     21 C           5.4457    3.3573    9.7988 C.ar    1  LIG1        0.1969
     22 C           6.8741    1.6583   10.6302 C.ar    1  LIG1       -0.0535
     23 C           7.4498    3.9713   10.7421 C.ar    1  LIG1        0.0332
     24 C           5.6848    2.0093   10.0000 C.ar    1  LIG1       -0.0160
     25 C           3.3502    5.0111    6.8376 C.ar    1  LIG1        0.1882
     26 C           3.2297    4.0876    5.8179 C.ar    1  LIG1        0.2307
     27 C           2.0792    4.2236    5.0722 C.ar    1  LIG1        0.2641
     28 C           1.4498    6.0955    6.2451 C.ar    1  LIG1        0.1659
     29 C           0.4983    7.1997    6.4421 C.ar    1  LIG1        0.0227
     30 C           4.7444    2.8148    4.4738 C.ar    1  LIG1        0.1702
     31 C          -0.3362    7.6351    5.4007 C.ar    1  LIG1       -0.0252
     32 C           0.3926    7.8652    7.6701 C.ar    1  LIG1       -0.0328
     33 C           0.6942    3.4907    3.2559 C.3     1  LIG1        0.1143
     34 C           5.4465    1.5957    4.4087 C.ar    1  LIG1        0.1621
     35 C          -1.2077    8.7021    5.6060 C.ar    1  LIG1        0.0708
     36 C           4.7035    3.6512    3.3503 C.ar    1  LIG1       -0.0157
     37 C          -0.5101    8.9069    7.7997 C.ar    1  LIG1        0.0289
     38 C          -0.4281    2.5107    3.5894 C.3     1  LIG1        0.0783
     39 C           6.0247    1.1977    3.1990 C.ar    1  LIG1       -0.0163
     40 C           5.2751    3.2392    2.1454 C.ar    1  LIG1       -0.0581
     41 C           5.9255    2.0114    2.0676 C.ar    1  LIG1       -0.0581
     42 C          -2.0501    9.1998    4.5161 C.ar    1  LIG1        0.0207
     43 C           6.3218   -0.2891    5.5846 C.3     1  LIG1        0.0790
     44 H          -1.7616    2.2293    4.9803 H       1  LIG1        0.2095
     45 H           4.4888    5.8405    8.2449 H       1  LIG1        0.1754
     46 H          -3.2254    9.4437    1.7151 H       1  LIG1        0.1651
     47 H           8.7357    1.5468   12.5708 H       1  LIG1        0.0344
     48 H          10.3350    2.1137   10.0139 H       1  LIG1        0.0235
     49 H           9.5460    0.5859   10.4299 H       1  LIG1        0.0235
     50 H          10.9033    1.1621   11.3985 H       1  LIG1        0.0235
     51 H          10.2148    4.0897   11.7498 H       1  LIG1        0.0235
     52 H          10.6287    2.9863   13.0663 H       1  LIG1        0.0235
     53 H           9.1368    3.9289   13.1516 H       1  LIG1        0.0235
     54 H           7.0790    0.6073   10.8247 H       1  LIG1        0.0622
     55 H           8.1014    4.7993   11.0088 H       1  LIG1        0.0833
     56 H           4.9653    1.2547    9.7013 H       1  LIG1        0.0653
     57 H          -0.2953    7.1479    4.4292 H       1  LIG1        0.0646
     58 H           0.9987    7.5714    8.5233 H       1  LIG1        0.0640
     59 H           1.0550    3.2704    2.2449 H       1  LIG1        0.0720
     60 H           0.3373    4.5260    3.2441 H       1  LIG1        0.0720
     61 H           4.2178    4.6213    3.3797 H       1  LIG1        0.0655
     62 H          -0.6206    9.4368    8.7419 H       1  LIG1        0.0830
     63 H          -1.1243    2.4393    2.7483 H       1  LIG1        0.0591
     64 H          -0.0238    1.5176    3.8107 H       1  LIG1        0.0591
     65 H           6.5544    0.2561    3.1003 H       1  LIG1        0.0655
     66 H           5.2085    3.8765    1.2674 H       1  LIG1        0.0619
     67 H           6.3657    1.6890    1.1271 H       1  LIG1        0.0619
     68 H           6.3366   -0.6780    6.6075 H       1  LIG1        0.0660
     69 H           7.3555   -0.0605    5.3036 H       1  LIG1        0.0660
     70 H           5.8969   -1.0636    4.9384 H       1  LIG1        0.0660
@<TRIPOS>BOND
     1     1    21    1
     2     1     8    1
     3     1     4    2
     4     1     3    2
     5     2    26    1
     6     2    30    1
     7     5    27    1
     8     5    33    1
     9     6    34    1
    10     6    43    1
    11     7    38    1
    12     8    25    1
    13     9    23   ar
    14     9    21   ar
    15    10    25   ar
    16    10    28   ar
    17    11    27   ar
    18    11    28   ar
    19    12    37   ar
    20    12    35   ar
    21    13    15   ar
    22    13    42   ar
    23    14    42   ar
    24    14    16   ar
    25    15    16   ar
    26    17    18    1
    27    17    20    1
    28    17    19    1
    29    18    23   ar
    30    18    22   ar
    31    21    24   ar
    32    22    24   ar
    33    25    26   ar
    34    26    27   ar
    35    28    29    1
    36    29    31   ar
    37    29    32   ar
    38    30    36   ar
    39    30    34   ar
    40    31    35   ar
    41    32    37   ar
    42    33    38    1
    43    34    39   ar
    44    35    42    1
    45    36    40   ar
    46    39    41   ar
    47    40    41   ar
    48     7    44    1
    49     8    45    1
    50    15    46    1
    51    17    47    1
    52    19    48    1
    53    19    49    1
    54    19    50    1
    55    20    51    1
    56    20    52    1
    57    20    53    1
    58    22    54    1
    59    23    55    1
    60    24    56    1
    61    31    57    1
    62    32    58    1
    63    33    59    1
    64    33    60    1
    65    36    61    1
    66    37    62    1
    67    38    63    1
    68    38    64    1
    69    39    65    1
    70    40    66    1
    71    41    67    1
    72    43    68    1
    73    43    69    1
    74    43    70    1
@<TRIPOS>MOLECULE
9939443
 70 74 0 0 0
SMALL
GASTEIGER

@<TRIPOS>ATOM
      1 S           4.1368    4.1245    8.9738 S.O2    1  LIG1        0.0908
      2 O           4.0683    2.8850    5.6357 O.3     1  LIG1       -0.4435
      3 O           2.8925    3.3988    8.7924 O.2     1  LIG1       -0.1484
      4 O           4.2728    5.0895   10.0490 O.2     1  LIG1       -0.1484
      5 O           1.4770    2.7817    4.6351 O.3     1  LIG1       -0.4715
      6 O           6.4119    1.6374    5.6601 O.3     1  LIG1       -0.4914
      7 O          -1.6448    0.9512    4.2360 O.3     1  LIG1       -0.3917
      8 N           4.5483    4.9470    7.5328 N.pl3   1  LIG1       -0.1950
      9 N           6.6836    3.4351    9.3205 N.ar    1  LIG1       -0.2351
     10 N           2.6532    6.0315    6.8187 N.ar    1  LIG1       -0.2073
     11 N           1.0418    4.9410    5.4485 N.ar    1  LIG1       -0.1899
     12 N          -1.2152    9.3080    6.6482 N.ar    1  LIG1       -0.2552
     13 N          -3.5237    9.5002    4.9276 N.ar    1  LIG1       -0.5621
     14 N          -3.1487    7.4155    4.1365 N.ar    1  LIG1       -0.1535
     15 N          -4.4428    9.0727    4.0551 N.ar    1  LIG1       -0.3597
     16 N          -4.2612    7.8446    3.5592 N.ar    1  LIG1       -0.0878
     17 C           8.6826    0.2497    9.8689 C.3     1  LIG1       -0.0201
     18 C           7.4866    1.1471    9.6107 C.ar    1  LIG1       -0.0266
     19 C           9.2039    0.4363   11.2981 C.3     1  LIG1       -0.0586
     20 C           8.4442   -1.2423    9.6064 C.3     1  LIG1       -0.0586
     21 C           5.4416    2.9131    9.1506 C.ar    1  LIG1        0.1969
     22 C           6.1840    0.6703    9.4125 C.ar    1  LIG1       -0.0535
     23 C           7.6656    2.5359    9.5491 C.ar    1  LIG1        0.0332
     24 C           5.1398    1.5613    9.1789 C.ar    1  LIG1       -0.0160
     25 C           3.4623    4.9784    6.6177 C.ar    1  LIG1        0.1882
     26 C           3.1823    3.9091    5.7962 C.ar    1  LIG1        0.2307
     27 C           1.8959    3.9084    5.3114 C.ar    1  LIG1        0.2641
     28 C           1.4626    5.9776    6.1958 C.ar    1  LIG1        0.1659
     29 C           0.5419    7.1170    6.3602 C.ar    1  LIG1        0.0227
     30 C           4.7270    2.7620    4.4209 C.ar    1  LIG1        0.1702
     31 C          -0.6408    7.2146    5.6067 C.ar    1  LIG1       -0.0252
     32 C           0.8046    8.1509    7.2689 C.ar    1  LIG1       -0.0328
     33 C           0.0594    2.6437    4.5495 C.3     1  LIG1        0.1143
     34 C           5.9425    2.0539    4.4380 C.ar    1  LIG1        0.1621
     35 C          -1.4859    8.3107    5.7682 C.ar    1  LIG1        0.0708
     36 C           4.2446    3.2471    3.1964 C.ar    1  LIG1       -0.0157
     37 C          -0.0880    9.2037    7.3777 C.ar    1  LIG1        0.0289
     38 C          -0.2470    1.1607    4.3740 C.3     1  LIG1        0.0783
     39 C           6.6101    1.7804    3.2356 C.ar    1  LIG1       -0.0163
     40 C           4.9293    2.9885    2.0058 C.ar    1  LIG1       -0.0581
     41 C           6.1031    2.2452    2.0232 C.ar    1  LIG1       -0.0581
     42 C          -2.7088    8.4268    4.9687 C.ar    1  LIG1        0.0207
     43 C           7.8327    1.5856    5.7608 C.3     1  LIG1        0.0790
     44 H          -1.7837   -0.0105    4.1959 H       1  LIG1        0.2095
     45 H           4.8119    5.8921    7.8106 H       1  LIG1        0.1754
     46 H          -5.2333    9.6480    3.7788 H       1  LIG1        0.1651
     47 H           9.4729    0.5631    9.1726 H       1  LIG1        0.0344
     48 H           8.4379    0.1778   12.0380 H       1  LIG1        0.0235
     49 H           9.5080    1.4724   11.4830 H       1  LIG1        0.0235
     50 H          10.0788   -0.1974   11.4790 H       1  LIG1        0.0235
     51 H           7.7133   -1.6654   10.3050 H       1  LIG1        0.0235
     52 H           9.3755   -1.8075    9.7248 H       1  LIG1        0.0235
     53 H           8.0824   -1.4132    8.5865 H       1  LIG1        0.0235
     54 H           5.9567   -0.3919    9.4394 H       1  LIG1        0.0622
     55 H           8.6508    2.9773    9.6851 H       1  LIG1        0.0833
     56 H           4.1262    1.2022    9.0353 H       1  LIG1        0.0653
     57 H          -0.8947    6.4379    4.8885 H       1  LIG1        0.0646
     58 H           1.6929    8.1398    7.8948 H       1  LIG1        0.0640
     59 H          -0.3156    3.2136    3.6912 H       1  LIG1        0.0720
     60 H          -0.4555    2.9978    5.4522 H       1  LIG1        0.0720
     61 H           3.3218    3.8103    3.1187 H       1  LIG1        0.0655
     62 H           0.0879   10.0169    8.0769 H       1  LIG1        0.0830
     63 H           0.2651    0.7624    3.4914 H       1  LIG1        0.0591
     64 H           0.1125    0.5997    5.2445 H       1  LIG1        0.0591
     65 H           7.5209    1.1905    3.2166 H       1  LIG1        0.0655
     66 H           4.5301    3.3530    1.0618 H       1  LIG1        0.0619
     67 H           6.6221    2.0235    1.0944 H       1  LIG1        0.0619
     68 H           8.0998    1.5763    6.8184 H       1  LIG1        0.0660
     69 H           8.3095    2.4645    5.3114 H       1  LIG1        0.0660
     70 H           8.2156    0.6615    5.3171 H       1  LIG1        0.0660
@<TRIPOS>BOND
     1     1    21    1
     2     1     8    1
     3     1     4    2
     4     1     3    2
     5     2    26    1
     6     2    30    1
     7     5    27    1
     8     5    33    1
     9     6    34    1
    10     6    43    1
    11     7    38    1
    12     8    25    1
    13     9    23   ar
    14     9    21   ar
    15    10    25   ar
    16    10    28   ar
    17    11    27   ar
    18    11    28   ar
    19    12    37   ar
    20    12    35   ar
    21    13    15   ar
    22    13    42   ar
    23    14    42   ar
    24    14    16   ar
    25    15    16   ar
    26    17    18    1
    27    17    20    1
    28    17    19    1
    29    18    23   ar
    30    18    22   ar
    31    21    24   ar
    32    22    24   ar
    33    25    26   ar
    34    26    27   ar
    35    28    29    1
    36    29    31   ar
    37    29    32   ar
    38    30    36   ar
    39    30    34   ar
    40    31    35   ar
    41    32    37   ar
    42    33    38    1
    43    34    39   ar
    44    35    42    1
    45    36    40   ar
    46    39    41   ar
    47    40    41   ar
    48     7    44    1
    49     8    45    1
    50    15    46    1
    51    17    47    1
    52    19    48    1
    53    19    49    1
    54    19    50    1
    55    20    51    1
    56    20    52    1
    57    20    53    1
    58    22    54    1
    59    23    55    1
    60    24    56    1
    61    31    57    1
    62    32    58    1
    63    33    59    1
    64    33    60    1
    65    36    61    1
    66    37    62    1
    67    38    63    1
    68    38    64    1
    69    39    65    1
    70    40    66    1
    71    41    67    1
    72    43    68    1
    73    43    69    1
    74    43    70    1
@<TRIPOS>MOLECULE
9939443
 70 74 0 0 0
SMALL
GASTEIGER

@<TRIPOS>ATOM
      1 S           3.9982    4.0797    9.0408 S.O2    1  LIG1        0.0908
      2 O           4.0246    2.8783    5.6907 O.3     1  LIG1       -0.4435
      3 O           3.1804    2.9398    8.6759 O.2     1  LIG1       -0.1484
      4 O           3.4940    5.0775    9.9648 O.2     1  LIG1       -0.1484
      5 O           1.4835    2.8490    4.5703 O.3     1  LIG1       -0.4715
      6 O           6.2813    1.5445    5.8352 O.3     1  LIG1       -0.4914
      7 O          -1.6063    0.9476    4.2660 O.3     1  LIG1       -0.3917
      8 N           4.4921    4.9093    7.6270 N.pl3   1  LIG1       -0.1950
      9 N           6.4441    4.4033   10.0290 N.ar    1  LIG1       -0.2351
     10 N           2.6183    6.0228    6.8833 N.ar    1  LIG1       -0.2073
     11 N           1.0428    4.9846    5.4338 N.ar    1  LIG1       -0.1899
     12 N          -1.2307    9.3269    6.6798 N.ar    1  LIG1       -0.2552
     13 N          -3.5295    9.5277    4.9431 N.ar    1  LIG1       -0.5621
     14 N          -3.1504    7.4442    4.1502 N.ar    1  LIG1       -0.1535
     15 N          -4.4450    9.1007    4.0667 N.ar    1  LIG1       -0.3597
     16 N          -4.2611    7.8736    3.5695 N.ar    1  LIG1       -0.0878
     17 C           9.0646    2.2619   11.7568 C.3     1  LIG1       -0.0201
     18 C           7.8098    2.6172   10.9783 C.ar    1  LIG1       -0.0266
     19 C           8.9375    2.7240   13.2139 C.3     1  LIG1       -0.0586
     20 C           9.4469    0.7774   11.7279 C.3     1  LIG1       -0.0586
     21 C           5.5355    3.4480    9.7005 C.ar    1  LIG1        0.1969
     22 C           6.8527    1.6762   10.5782 C.ar    1  LIG1       -0.0535
     23 C           7.5524    3.9570   10.6613 C.ar    1  LIG1        0.0332
     24 C           5.6934    2.0907    9.9275 C.ar    1  LIG1       -0.0160
     25 C           3.4224    4.9655    6.6860 C.ar    1  LIG1        0.1882
     26 C           3.1569    3.9194    5.8296 C.ar    1  LIG1        0.2307
     27 C           1.8902    3.9466    5.2987 C.ar    1  LIG1        0.2641
     28 C           1.4482    5.9976    6.2214 C.ar    1  LIG1        0.1659
     29 C           0.5288    7.1381    6.3883 C.ar    1  LIG1        0.0227
     30 C           4.7427    2.7567    4.5117 C.ar    1  LIG1        0.1702
     31 C          -0.6478    7.2424    5.6263 C.ar    1  LIG1       -0.0252
     32 C           0.7841    8.1635    7.3083 C.ar    1  LIG1       -0.0328
     33 C           0.0677    2.6793    4.5205 C.3     1  LIG1        0.1143
     34 C           5.9270    1.9974    4.5876 C.ar    1  LIG1        0.1621
     35 C          -1.4946    8.3364    5.7904 C.ar    1  LIG1        0.0708
     36 C           4.3416    3.2808    3.2745 C.ar    1  LIG1       -0.0157
     37 C          -0.1089    9.2161    7.4176 C.ar    1  LIG1        0.0289
     38 C          -0.2103    1.1875    4.3762 C.3     1  LIG1        0.0783
     39 C           6.6574    1.7367    3.4207 C.ar    1  LIG1       -0.0163
     40 C           5.0821    3.0201    2.1197 C.ar    1  LIG1       -0.0581
     41 C           6.2318    2.2420    2.1910 C.ar    1  LIG1       -0.0581
     42 C          -2.7141    8.4546    4.9857 C.ar    1  LIG1        0.0207
     43 C           7.6171    1.0828    5.9909 C.3     1  LIG1        0.0790
     44 H          -1.7254   -0.0177    4.2508 H       1  LIG1        0.2095
     45 H           4.6962    5.8621    7.9320 H       1  LIG1        0.1754
     46 H          -5.2350    9.6757    3.7882 H       1  LIG1        0.1651
     47 H           9.8984    2.8078   11.2948 H       1  LIG1        0.0344
     48 H           8.0933    2.2363   13.7146 H       1  LIG1        0.0235
     49 H           8.7809    3.8062   13.2797 H       1  LIG1        0.0235
     50 H           9.8470    2.4898   13.7779 H       1  LIG1        0.0235
     51 H           8.7083    0.1569   12.2480 H       1  LIG1        0.0235
     52 H          10.4112    0.6198   12.2237 H       1  LIG1        0.0235
     53 H           9.5384    0.4108   10.6998 H       1  LIG1        0.0235
     54 H           6.9759    0.6167   10.7855 H       1  LIG1        0.0622
     55 H           8.2548    4.7403   10.9399 H       1  LIG1        0.0833
     56 H           4.9310    1.3746    9.6387 H       1  LIG1        0.0653
     57 H          -0.8971    6.4712    4.9001 H       1  LIG1        0.0646
     58 H           1.6662    8.1451    7.9424 H       1  LIG1        0.0640
     59 H          -0.3364    3.2274    3.6615 H       1  LIG1        0.0720
     60 H          -0.4390    3.0378    5.4263 H       1  LIG1        0.0720
     61 H           3.4408    3.8732    3.1615 H       1  LIG1        0.0655
     62 H           0.0614   10.0231    8.1250 H       1  LIG1        0.0830
     63 H           0.2949    0.7835    3.4922 H       1  LIG1        0.0591
     64 H           0.1752    0.6496    5.2501 H       1  LIG1        0.0591
     65 H           7.5552    1.1279    3.4333 H       1  LIG1        0.0655
     66 H           4.7470    3.4113    1.1619 H       1  LIG1        0.0619
     67 H           6.7963    2.0241    1.2877 H       1  LIG1        0.0619
     68 H           7.8016    0.9443    7.0604 H       1  LIG1        0.0660
     69 H           8.3440    1.8153    5.6223 H       1  LIG1        0.0660
     70 H           7.7511    0.1133    5.5003 H       1  LIG1        0.0660
@<TRIPOS>BOND
     1     1    21    1
     2     1     8    1
     3     1     4    2
     4     1     3    2
     5     2    26    1
     6     2    30    1
     7     5    27    1
     8     5    33    1
     9     6    34    1
    10     6    43    1
    11     7    38    1
    12     8    25    1
    13     9    23   ar
    14     9    21   ar
    15    10    25   ar
    16    10    28   ar
    17    11    27   ar
    18    11    28   ar
    19    12    37   ar
    20    12    35   ar
    21    13    15   ar
    22    13    42   ar
    23    14    42   ar
    24    14    16   ar
    25    15    16   ar
    26    17    18    1
    27    17    20    1
    28    17    19    1
    29    18    23   ar
    30    18    22   ar
    31    21    24   ar
    32    22    24   ar
    33    25    26   ar
    34    26    27   ar
    35    28    29    1
    36    29    31   ar
    37    29    32   ar
    38    30    36   ar
    39    30    34   ar
    40    31    35   ar
    41    32    37   ar
    42    33    38    1
    43    34    39   ar
    44    35    42    1
    45    36    40   ar
    46    39    41   ar
    47    40    41   ar
    48     7    44    1
    49     8    45    1
    50    15    46    1
    51    17    47    1
    52    19    48    1
    53    19    49    1
    54    19    50    1
    55    20    51    1
    56    20    52    1
    57    20    53    1
    58    22    54    1
    59    23    55    1
    60    24    56    1
    61    31    57    1
    62    32    58    1
    63    33    59    1
    64    33    60    1
    65    36    61    1
    66    37    62    1
    67    38    63    1
    68    38    64    1
    69    39    65    1
    70    40    66    1
    71    41    67    1
    72    43    68    1
    73    43    69    1
    74    43    70    1
@<TRIPOS>MOLECULE
9939443
 70 74 0 0 0
SMALL
GASTEIGER

@<TRIPOS>ATOM
      1 S           5.6791    6.1355    7.3594 S.O2    1  LIG1        0.0908
      2 O           4.3440    3.2084    5.7888 O.3     1  LIG1       -0.4435
      3 O           5.1167    7.3487    6.7940 O.2     1  LIG1       -0.1484
      4 O           6.6657    5.3586    6.6444 O.2     1  LIG1       -0.1484
      5 O           1.7660    3.1886    4.2659 O.3     1  LIG1       -0.4715
      6 O           5.6042    0.9412    5.5082 O.3     1  LIG1       -0.4914
      7 O           0.1078    1.5288    6.2269 O.3     1  LIG1       -0.3917
      8 N           4.4309    5.0999    7.8578 N.pl3   1  LIG1       -0.1950
      9 N           5.5813    6.2992   10.0083 N.ar    1  LIG1       -0.2351
     10 N           2.4042    5.9160    7.2210 N.ar    1  LIG1       -0.2073
     11 N           1.1670    5.0238    5.4128 N.ar    1  LIG1       -0.1899
     12 N          -1.4527    9.1530    6.7865 N.ar    1  LIG1       -0.2552
     13 N          -3.1311    7.4775    3.9832 N.ar    1  LIG1       -0.5621
     14 N          -3.7463    9.3179    5.1470 N.ar    1  LIG1       -0.1535
     15 N          -4.2608    8.0522    3.5476 N.ar    1  LIG1       -0.3597
     16 N          -4.6649    9.1396    4.2081 N.ar    1  LIG1       -0.0878
     17 C           7.8998    7.2532   12.8578 C.3     1  LIG1       -0.0201
     18 C           7.4057    7.0609   11.4347 C.ar    1  LIG1       -0.0266
     19 C           8.2913    5.9051   13.4728 C.3     1  LIG1       -0.0586
     20 C           9.0568    8.2461   13.0110 C.3     1  LIG1       -0.0586
     21 C           6.3845    6.5875    8.9445 C.ar    1  LIG1        0.1969
     22 C           8.1789    7.3383   10.2969 C.ar    1  LIG1       -0.0535
     23 C           6.1212    6.5469   11.2220 C.ar    1  LIG1        0.0332
     24 C           7.6678    7.0959    9.0231 C.ar    1  LIG1       -0.0160
     25 C           3.3516    5.0094    6.9506 C.ar    1  LIG1        0.1882
     26 C           3.3132    4.0888    5.9205 C.ar    1  LIG1        0.2307
     27 C           2.1181    4.0822    5.2321 C.ar    1  LIG1        0.2641
     28 C           1.3568    5.9260    6.3877 C.ar    1  LIG1        0.1659
     29 C           0.3794    7.0191    6.5333 C.ar    1  LIG1        0.0227
     30 C           4.9246    2.9903    4.5552 C.ar    1  LIG1        0.1702
     31 C          -0.7579    7.1080    5.7148 C.ar    1  LIG1       -0.0252
     32 C           0.5648    8.0393    7.4787 C.ar    1  LIG1       -0.0328
     33 C           1.8546    1.7874    4.5549 C.3     1  LIG1        0.1143
     34 C           5.6072    1.7654    4.4095 C.ar    1  LIG1        0.1621
     35 C          -1.6409    8.1771    5.8620 C.ar    1  LIG1        0.0708
     36 C           4.8758    3.8961    3.4902 C.ar    1  LIG1       -0.0157
     37 C          -0.3595    9.0649    7.5666 C.ar    1  LIG1        0.0289
     38 C           1.4892    1.3121    5.9643 C.3     1  LIG1        0.0783
     39 C           6.1806    1.4405    3.1771 C.ar    1  LIG1       -0.0163
     40 C           5.4481    3.5574    2.2634 C.ar    1  LIG1       -0.0581
     41 C           6.0921    2.3318    2.1054 C.ar    1  LIG1       -0.0581
     42 C          -2.8194    8.3057    5.0024 C.ar    1  LIG1        0.0207
     43 C           6.4904   -0.1698    5.4844 C.3     1  LIG1        0.0790
     44 H          -0.0641    1.2173    7.1318 H       1  LIG1        0.2095
     45 H           4.1265    5.4160    8.7825 H       1  LIG1        0.1754
     46 H          -4.7843    7.6852    2.7581 H       1  LIG1        0.1651
     47 H           7.0629    7.6632   13.4400 H       1  LIG1        0.0344
     48 H           9.1074    5.4333   12.9139 H       1  LIG1        0.0235
     49 H           7.4464    5.2076   13.4776 H       1  LIG1        0.0235
     50 H           8.6194    6.0310   14.5104 H       1  LIG1        0.0235
     51 H           9.9761    7.8768   12.5432 H       1  LIG1        0.0235
     52 H           9.2768    8.4161   14.0710 H       1  LIG1        0.0235
     53 H           8.8096    9.2146   12.5633 H       1  LIG1        0.0235
     54 H           9.1880    7.7318   10.3832 H       1  LIG1        0.0622
     55 H           5.4743    6.3020   12.0625 H       1  LIG1        0.0833
     56 H           8.2548    7.2867    8.1318 H       1  LIG1        0.0653
     57 H          -0.9471    6.3498    4.9571 H       1  LIG1        0.0646
     58 H           1.4303    8.0474    8.1353 H       1  LIG1        0.0640
     59 H           2.8448    1.4247    4.2785 H       1  LIG1        0.0720
     60 H           1.1596    1.3126    3.8520 H       1  LIG1        0.0720
     61 H           4.3903    4.8625    3.5865 H       1  LIG1        0.0655
     62 H          -0.2356    9.8698    8.2854 H       1  LIG1        0.0830
     63 H           1.6776    0.2358    6.0390 H       1  LIG1        0.0591
     64 H           2.0690    1.8123    6.7428 H       1  LIG1        0.0591
     65 H           6.6875    0.4956    3.0131 H       1  LIG1        0.0655
     66 H           5.3867    4.2504    1.4277 H       1  LIG1        0.0619
     67 H           6.5285    2.0690    1.1448 H       1  LIG1        0.0619
     68 H           6.4899   -0.6181    6.4828 H       1  LIG1        0.0660
     69 H           7.5174    0.1368    5.2590 H       1  LIG1        0.0660
     70 H           6.1393   -0.9292    4.7786 H       1  LIG1        0.0660
@<TRIPOS>BOND
     1     1    21    1
     2     1     8    1
     3     1     4    2
     4     1     3    2
     5     2    26    1
     6     2    30    1
     7     5    27    1
     8     5    33    1
     9     6    34    1
    10     6    43    1
    11     7    38    1
    12     8    25    1
    13     9    23   ar
    14     9    21   ar
    15    10    25   ar
    16    10    28   ar
    17    11    27   ar
    18    11    28   ar
    19    12    37   ar
    20    12    35   ar
    21    13    15   ar
    22    13    42   ar
    23    14    42   ar
    24    14    16   ar
    25    15    16   ar
    26    17    18    1
    27    17    20    1
    28    17    19    1
    29    18    23   ar
    30    18    22   ar
    31    21    24   ar
    32    22    24   ar
    33    25    26   ar
    34    26    27   ar
    35    28    29    1
    36    29    31   ar
    37    29    32   ar
    38    30    36   ar
    39    30    34   ar
    40    31    35   ar
    41    32    37   ar
    42    33    38    1
    43    34    39   ar
    44    35    42    1
    45    36    40   ar
    46    39    41   ar
    47    40    41   ar
    48     7    44    1
    49     8    45    1
    50    15    46    1
    51    17    47    1
    52    19    48    1
    53    19    49    1
    54    19    50    1
    55    20    51    1
    56    20    52    1
    57    20    53    1
    58    22    54    1
    59    23    55    1
    60    24    56    1
    61    31    57    1
    62    32    58    1
    63    33    59    1
    64    33    60    1
    65    36    61    1
    66    37    62    1
    67    38    63    1
    68    38    64    1
    69    39    65    1
    70    40    66    1
    71    41    67    1
    72    43    68    1
    73    43    69    1
    74    43    70    1
