@<TRIPOS>MOLECULE
01178588C
 55 57 0 0 0
SMALL
GASTEIGER

@<TRIPOS>ATOM
      1 S           2.9121   -1.6164   -1.2042 S.O2    1  LIG1        0.0756
      2 C           1.6790   -2.4307   -2.1737 C.ar    1  LIG1        0.1344
      3 N           2.8560   -2.4308    0.2830 N.pl3   1  LIG1       -0.1951
      4 O           2.4599   -0.2490   -1.0227 O.2     1  LIG1       -0.1499
      5 O           4.1968   -1.8510   -1.8256 O.2     1  LIG1       -0.1499
      6 C           1.7210   -3.7881   -2.4774 C.ar    1  LIG1        0.0975
      7 C           0.6132   -1.6582   -2.6654 C.ar    1  LIG1       -0.0315
      8 C           3.3841   -1.6038    1.3253 C.ar    1  LIG1        0.2006
      9 C           2.7031   -4.7763   -2.0036 C.ar    1  LIG1        0.0023
     10 N           0.7454   -4.3630   -3.2462 N.ar    1  LIG1       -0.2530
     11 C          -0.3757   -2.2490   -3.4414 C.ar    1  LIG1       -0.0417
     12 C           4.7621   -1.4631    1.5465 C.ar    1  LIG1        0.2574
     13 N           2.4701   -0.8254    1.9414 N.ar    1  LIG1       -0.2325
     14 C           4.0495   -4.7605   -2.3938 C.ar    1  LIG1       -0.0523
     15 C           2.2739   -5.8429   -1.1964 C.ar    1  LIG1       -0.0523
     16 C          -0.2648   -3.5968   -3.7054 C.ar    1  LIG1        0.0284
     17 N           5.2709   -0.5361    2.3958 N.ar    1  LIG1       -0.2137
     18 O           5.6073   -2.3074    0.8539 O.3     1  LIG1       -0.4773
     19 C           2.9863    0.0969    2.7869 C.ar    1  LIG1        0.0510
     20 C           4.9404   -5.7544   -1.9664 C.ar    1  LIG1       -0.0579
     21 C           3.1541   -6.8487   -0.7892 C.ar    1  LIG1       -0.0579
     22 C           4.3544    0.2511    3.0120 C.ar    1  LIG1        0.0602
     23 C           6.9836   -2.0201    1.0612 C.3     1  LIG1        0.0805
     24 C           4.4986   -6.8150   -1.1675 C.ar    1  LIG1       -0.0465
     25 C           4.8566    1.3285    3.9213 C.3     1  LIG1       -0.0208
     26 C           5.4385   -7.9350   -0.7665 C.3     1  LIG1       -0.0174
     27 C           5.8860   -7.9710    0.7108 C.3     1  LIG1        0.0085
     28 C           4.7195   -8.4127    1.6342 C.2     1  LIG1        0.0477
     29 C           6.9254   -9.0958    0.8888 C.3     1  LIG1       -0.0544
     30 C           6.5235   -6.6445    1.1412 C.3     1  LIG1       -0.0544
     31 O           4.5211   -7.6990    2.6569 O.co2   1  LIG1       -0.5493
     32 O           4.0956   -9.4537    1.2700 O.co2   1  LIG1       -0.5493
     33 H           3.4644   -3.2550    0.2048 H       1  LIG1        0.1754
     34 H           0.5438   -0.5957   -2.4417 H       1  LIG1        0.0638
     35 H          -1.2090   -1.6721   -3.8252 H       1  LIG1        0.0633
     36 H           4.4242   -3.9855   -3.0586 H       1  LIG1        0.0624
     37 H           1.2291   -5.9190   -0.8999 H       1  LIG1        0.0624
     38 H          -1.0045   -4.1193   -4.3048 H       1  LIG1        0.0830
     39 H           2.2564    0.7338    3.2758 H       1  LIG1        0.0848
     40 H           5.9795   -5.7070   -2.2827 H       1  LIG1        0.0620
     41 H           2.7756   -7.6740   -0.1857 H       1  LIG1        0.0620
     42 H           7.5659   -2.7311    0.4672 H       1  LIG1        0.0660
     43 H           7.2663   -2.1527    2.1111 H       1  LIG1        0.0660
     44 H           7.2329   -1.0119    0.7117 H       1  LIG1        0.0660
     45 H           5.9424    1.2601    4.0438 H       1  LIG1        0.0293
     46 H           4.3965    1.2408    4.9102 H       1  LIG1        0.0293
     47 H           4.6227    2.3126    3.5026 H       1  LIG1        0.0293
     48 H           6.3339   -7.8717   -1.4016 H       1  LIG1        0.0322
     49 H           4.9652   -8.8833   -1.0568 H       1  LIG1        0.0322
     50 H           7.8437   -8.8740    0.3331 H       1  LIG1        0.0239
     51 H           6.5513  -10.0605    0.5255 H       1  LIG1        0.0239
     52 H           7.1980   -9.2271    1.9428 H       1  LIG1        0.0239
     53 H           7.3446   -6.3654    0.4715 H       1  LIG1        0.0239
     54 H           6.9359   -6.7112    2.1550 H       1  LIG1        0.0239
     55 H           5.7960   -5.8256    1.1444 H       1  LIG1        0.0239
@<TRIPOS>BOND
     1     1     5    2
     2     1     4    2
     3     1     3    1
     4     1     2    1
     5     2     6   ar
     6     2     7   ar
     7     3     8    1
     8     6    10   ar
     9     6     9    1
    10     7    11   ar
    11     8    12   ar
    12     8    13   ar
    13     9    14   ar
    14     9    15   ar
    15    10    16   ar
    16    11    16   ar
    17    12    17   ar
    18    12    18    1
    19    13    19   ar
    20    14    20   ar
    21    15    21   ar
    22    17    22   ar
    23    18    23    1
    24    19    22   ar
    25    20    24   ar
    26    21    24   ar
    27    22    25    1
    28    24    26    1
    29    26    27    1
    30    27    30    1
    31    27    29    1
    32    27    28    1
    33    28    32   ar
    34    28    31   ar
    35     3    33    1
    36     7    34    1
    37    11    35    1
    38    14    36    1
    39    15    37    1
    40    16    38    1
    41    19    39    1
    42    20    40    1
    43    21    41    1
    44    23    42    1
    45    23    43    1
    46    23    44    1
    47    25    45    1
    48    25    46    1
    49    25    47    1
    50    26    48    1
    51    26    49    1
    52    29    50    1
    53    29    51    1
    54    29    52    1
    55    30    53    1
    56    30    54    1
    57    30    55    1
@<TRIPOS>MOLECULE
01178588C
 55 57 0 0 0
SMALL
GASTEIGER

@<TRIPOS>ATOM
      1 S           2.8673   -1.7264   -1.2154 S.O2    1  LIG1        0.0756
      2 C           1.7059   -2.4727   -2.3115 C.ar    1  LIG1        0.1344
      3 N           2.4120   -0.0987   -1.0893 N.pl3   1  LIG1       -0.1951
      4 O           4.1342   -1.6587   -1.9154 O.2     1  LIG1       -0.1499
      5 O           2.7429   -2.3306    0.0923 O.2     1  LIG1       -0.1499
      6 C           1.6764   -3.8570   -2.4777 C.ar    1  LIG1        0.0975
      7 C           0.7530   -1.6895   -2.9768 C.ar    1  LIG1       -0.0315
      8 C           1.4914    0.1823   -0.0472 C.ar    1  LIG1        0.2006
      9 C           2.6676   -4.8297   -1.9799 C.ar    1  LIG1        0.0023
     10 N           0.6953   -4.4517   -3.2234 N.ar    1  LIG1       -0.2530
     11 C          -0.2293   -2.2991   -3.7480 C.ar    1  LIG1       -0.0417
     12 C           1.8986    0.4931    1.2558 C.ar    1  LIG1        0.2574
     13 N           0.1942    0.0959   -0.4032 N.ar    1  LIG1       -0.2325
     14 C           4.0214   -4.7554   -2.3440 C.ar    1  LIG1       -0.0523
     15 C           2.2606   -5.9424   -1.2234 C.ar    1  LIG1       -0.0523
     16 C          -0.2244   -3.6751   -3.8299 C.ar    1  LIG1        0.0284
     17 N           1.0121    0.7934    2.2366 N.ar    1  LIG1       -0.2137
     18 O           3.2534    0.5916    1.5075 O.3     1  LIG1       -0.4773
     19 C          -0.6847    0.3712    0.5894 C.ar    1  LIG1        0.0510
     20 C           4.9334   -5.7433   -1.9567 C.ar    1  LIG1       -0.0579
     21 C           3.1686   -6.9402   -0.8467 C.ar    1  LIG1       -0.0579
     22 C          -0.2954    0.7208    1.8824 C.ar    1  LIG1        0.0602
     23 C           3.5509    0.3864    2.8855 C.3     1  LIG1        0.0805
     24 C           4.5132   -6.8549   -1.2196 C.ar    1  LIG1       -0.0465
     25 C          -1.3228    1.0516    2.9191 C.3     1  LIG1       -0.0208
     26 C           5.4958   -7.9550   -0.8648 C.3     1  LIG1       -0.0174
     27 C           5.6205   -9.1033   -1.8943 C.3     1  LIG1        0.0085
     28 C           6.7618   -9.9651   -1.2817 C.2     1  LIG1        0.0477
     29 C           4.3439   -9.9467   -1.9933 C.3     1  LIG1       -0.0544
     30 C           6.0143   -8.6146   -3.2936 C.3     1  LIG1       -0.0544
     31 O           6.4114  -10.7851   -0.3839 O.co2   1  LIG1       -0.5493
     32 O           7.9256   -9.7356   -1.7206 O.co2   1  LIG1       -0.5493
     33 H           3.2744    0.4429   -1.0270 H       1  LIG1        0.1754
     34 H           0.7511   -0.6068   -2.8931 H       1  LIG1        0.0638
     35 H          -0.9850   -1.7138   -4.2586 H       1  LIG1        0.0633
     36 H           4.3861   -3.9466   -2.9725 H       1  LIG1        0.0624
     37 H           1.2135   -6.0577   -0.9518 H       1  LIG1        0.0624
     38 H          -0.9731   -4.2109   -4.4057 H       1  LIG1        0.0830
     39 H          -1.7322    0.3110    0.3109 H       1  LIG1        0.0848
     40 H           5.9741   -5.6603   -2.2639 H       1  LIG1        0.0620
     41 H           2.8167   -7.8012   -0.2828 H       1  LIG1        0.0620
     42 H           4.6380    0.3100    2.9843 H       1  LIG1        0.0660
     43 H           3.1158   -0.5489    3.2561 H       1  LIG1        0.0660
     44 H           3.2200    1.2381    3.4895 H       1  LIG1        0.0660
     45 H          -0.8481    1.2842    3.8777 H       1  LIG1        0.0293
     46 H          -1.9989    0.2044    3.0687 H       1  LIG1        0.0293
     47 H          -1.9046    1.9248    2.6071 H       1  LIG1        0.0293
     48 H           5.2134   -8.3565    0.1193 H       1  LIG1        0.0322
     49 H           6.4777   -7.4878   -0.6995 H       1  LIG1        0.0322
     50 H           3.5429   -9.4052   -2.5077 H       1  LIG1        0.0239
     51 H           3.9651  -10.2348   -1.0062 H       1  LIG1        0.0239
     52 H           4.5282  -10.8703   -2.5550 H       1  LIG1        0.0239
     53 H           5.1887   -8.0864   -3.7831 H       1  LIG1        0.0239
     54 H           6.2892   -9.4561   -3.9405 H       1  LIG1        0.0239
     55 H           6.8717   -7.9329   -3.2615 H       1  LIG1        0.0239
@<TRIPOS>BOND
     1     1     5    2
     2     1     4    2
     3     1     3    1
     4     1     2    1
     5     2     6   ar
     6     2     7   ar
     7     3     8    1
     8     6    10   ar
     9     6     9    1
    10     7    11   ar
    11     8    12   ar
    12     8    13   ar
    13     9    14   ar
    14     9    15   ar
    15    10    16   ar
    16    11    16   ar
    17    12    17   ar
    18    12    18    1
    19    13    19   ar
    20    14    20   ar
    21    15    21   ar
    22    17    22   ar
    23    18    23    1
    24    19    22   ar
    25    20    24   ar
    26    21    24   ar
    27    22    25    1
    28    24    26    1
    29    26    27    1
    30    27    30    1
    31    27    29    1
    32    27    28    1
    33    28    32   ar
    34    28    31   ar
    35     3    33    1
    36     7    34    1
    37    11    35    1
    38    14    36    1
    39    15    37    1
    40    16    38    1
    41    19    39    1
    42    20    40    1
    43    21    41    1
    44    23    42    1
    45    23    43    1
    46    23    44    1
    47    25    45    1
    48    25    46    1
    49    25    47    1
    50    26    48    1
    51    26    49    1
    52    29    50    1
    53    29    51    1
    54    29    52    1
    55    30    53    1
    56    30    54    1
    57    30    55    1
@<TRIPOS>MOLECULE
01178588C
 55 57 0 0 0
SMALL
GASTEIGER

@<TRIPOS>ATOM
      1 S           2.8967   -1.4933   -1.3107 S.O2    1  LIG1        0.0756
      2 C           1.6230   -2.4401   -2.0893 C.ar    1  LIG1        0.1344
      3 N           4.3119   -1.9438   -2.1185 N.pl3   1  LIG1       -0.1951
      4 O           2.9801   -1.9239    0.0664 O.2     1  LIG1       -0.1499
      5 O           2.6081   -0.0987   -1.6023 O.2     1  LIG1       -0.1499
      6 C           1.6655   -3.8233   -2.2397 C.ar    1  LIG1        0.0975
      7 C           0.5086   -1.7374   -2.5833 C.ar    1  LIG1       -0.0315
      8 C           5.2545   -0.8760   -2.1339 C.ar    1  LIG1        0.2006
      9 C           2.7523   -4.7448   -1.8573 C.ar    1  LIG1        0.0023
     10 N           0.6348   -4.4846   -2.8549 N.ar    1  LIG1       -0.2530
     11 C          -0.5274   -2.4169   -3.2099 C.ar    1  LIG1       -0.0417
     12 C           5.2349    0.1656   -3.0727 C.ar    1  LIG1        0.2574
     13 N           6.0606   -0.8716   -1.0536 N.ar    1  LIG1       -0.2325
     14 C           3.2984   -5.6018   -2.8304 C.ar    1  LIG1       -0.0523
     15 C           3.2179   -4.8916   -0.5431 C.ar    1  LIG1       -0.0523
     16 C          -0.4195   -3.7847   -3.3198 C.ar    1  LIG1        0.0284
     17 N           6.0379    1.2546   -2.9529 N.ar    1  LIG1       -0.2137
     18 O           4.3708    0.0674   -4.1467 O.3     1  LIG1       -0.4773
     19 C           6.8514    0.2215   -0.9420 C.ar    1  LIG1        0.0510
     20 C           4.2717   -6.5527   -2.5111 C.ar    1  LIG1       -0.0579
     21 C           4.2166   -5.8240   -0.2243 C.ar    1  LIG1       -0.0579
     22 C           6.8417    1.2713   -1.8603 C.ar    1  LIG1        0.0602
     23 C           4.4631    1.1686   -5.0404 C.3     1  LIG1        0.0805
     24 C           4.7479   -6.6704   -1.2044 C.ar    1  LIG1       -0.0465
     25 C           7.7036    2.4756   -1.6457 C.3     1  LIG1       -0.0208
     26 C           5.7705   -7.7327   -0.8508 C.3     1  LIG1       -0.0174
     27 C           7.2102   -7.5094   -1.3642 C.3     1  LIG1        0.0085
     28 C           7.3300   -7.7719   -2.8891 C.2     1  LIG1        0.0477
     29 C           7.7493   -6.1352   -0.9501 C.3     1  LIG1       -0.0544
     30 C           8.1249   -8.5979   -0.7669 C.3     1  LIG1       -0.0544
     31 O           6.7294   -8.8000   -3.3188 O.co2   1  LIG1       -0.5493
     32 O           8.0349   -6.9488   -3.5399 O.co2   1  LIG1       -0.5493
     33 H           4.7515   -2.7087   -1.5981 H       1  LIG1        0.1754
     34 H           0.4436   -0.6555   -2.4871 H       1  LIG1        0.0638
     35 H          -1.3899   -1.8912   -3.6020 H       1  LIG1        0.0633
     36 H           2.9400   -5.5595   -3.8578 H       1  LIG1        0.0624
     37 H           2.7886   -4.3103    0.2687 H       1  LIG1        0.0624
     38 H          -1.1919   -4.3779   -3.8000 H       1  LIG1        0.0830
     39 H           7.4944    0.2394   -0.0676 H       1  LIG1        0.0848
     40 H           4.6420   -7.2169   -3.2920 H       1  LIG1        0.0620
     41 H           4.5578   -5.9038    0.8053 H       1  LIG1        0.0620
     42 H           3.7620    0.9913   -5.8617 H       1  LIG1        0.0660
     43 H           5.4664    1.2484   -5.4737 H       1  LIG1        0.0660
     44 H           4.1706    2.1035   -4.5499 H       1  LIG1        0.0660
     45 H           7.5910    3.1870   -2.4703 H       1  LIG1        0.0293
     46 H           8.7568    2.1858   -1.5857 H       1  LIG1        0.0293
     47 H           7.4168    2.9834   -0.7191 H       1  LIG1        0.0293
     48 H           5.3754   -8.6994   -1.1922 H       1  LIG1        0.0322
     49 H           5.8013   -7.8220    0.2447 H       1  LIG1        0.0322
     50 H           7.6475   -5.9804    0.1299 H       1  LIG1        0.0239
     51 H           7.2212   -5.3228   -1.4610 H       1  LIG1        0.0239
     52 H           8.8127   -6.0305   -1.1959 H       1  LIG1        0.0239
     53 H           8.1868   -8.5038    0.3233 H       1  LIG1        0.0239
     54 H           9.1451   -8.5289   -1.1636 H       1  LIG1        0.0239
     55 H           7.7565   -9.6072   -0.9870 H       1  LIG1        0.0239
@<TRIPOS>BOND
     1     1     5    2
     2     1     4    2
     3     1     3    1
     4     1     2    1
     5     2     6   ar
     6     2     7   ar
     7     3     8    1
     8     6    10   ar
     9     6     9    1
    10     7    11   ar
    11     8    12   ar
    12     8    13   ar
    13     9    14   ar
    14     9    15   ar
    15    10    16   ar
    16    11    16   ar
    17    12    17   ar
    18    12    18    1
    19    13    19   ar
    20    14    20   ar
    21    15    21   ar
    22    17    22   ar
    23    18    23    1
    24    19    22   ar
    25    20    24   ar
    26    21    24   ar
    27    22    25    1
    28    24    26    1
    29    26    27    1
    30    27    30    1
    31    27    29    1
    32    27    28    1
    33    28    32   ar
    34    28    31   ar
    35     3    33    1
    36     7    34    1
    37    11    35    1
    38    14    36    1
    39    15    37    1
    40    16    38    1
    41    19    39    1
    42    20    40    1
    43    21    41    1
    44    23    42    1
    45    23    43    1
    46    23    44    1
    47    25    45    1
    48    25    46    1
    49    25    47    1
    50    26    48    1
    51    26    49    1
    52    29    50    1
    53    29    51    1
    54    29    52    1
    55    30    53    1
    56    30    54    1
    57    30    55    1
@<TRIPOS>MOLECULE
01178588C
 55 57 0 0 0
SMALL
GASTEIGER

@<TRIPOS>ATOM
      1 S           2.8505   -1.6411   -1.2246 S.O2    1  LIG1        0.0756
      2 C           1.7397   -2.4223   -2.3482 C.ar    1  LIG1        0.1344
      3 N           2.3348   -0.0311   -1.1035 N.pl3   1  LIG1       -0.1951
      4 O           4.1262   -1.5190   -1.8996 O.2     1  LIG1       -0.1499
      5 O           2.7228   -2.2590    0.0753 O.2     1  LIG1       -0.1499
      6 C           1.7846   -3.8018   -2.5529 C.ar    1  LIG1        0.0975
      7 C           0.7511   -1.6714   -2.9999 C.ar    1  LIG1       -0.0315
      8 C           1.4263    0.2229   -0.0447 C.ar    1  LIG1        0.2006
      9 C           2.7898   -4.7503   -2.0316 C.ar    1  LIG1        0.0023
     10 N           0.8480   -4.4214   -3.3371 N.ar    1  LIG1       -0.2530
     11 C          -0.1886   -2.3071   -3.8024 C.ar    1  LIG1       -0.0417
     12 C           1.8507    0.5308    1.2534 C.ar    1  LIG1        0.2574
     13 N           0.1252    0.1156   -0.3806 N.ar    1  LIG1       -0.2325
     14 C           2.3795   -5.9142   -1.3573 C.ar    1  LIG1       -0.0523
     15 C           4.1635   -4.6041   -2.2811 C.ar    1  LIG1       -0.0523
     16 C          -0.1055   -3.6766   -3.9316 C.ar    1  LIG1        0.0284
     17 N           0.9770    0.8095    2.2513 N.ar    1  LIG1       -0.2137
     18 O           3.2072    0.6539    1.4818 O.3     1  LIG1       -0.4773
     19 C          -0.7405    0.3686    0.6299 C.ar    1  LIG1        0.0510
     20 C           3.3000   -6.8854   -0.9455 C.ar    1  LIG1       -0.0579
     21 C           5.0897   -5.5617   -1.8471 C.ar    1  LIG1       -0.0579
     22 C          -0.3348    0.7160    1.9190 C.ar    1  LIG1        0.0602
     23 C           3.5359    0.3985    2.8444 C.3     1  LIG1        0.0805
     24 C           4.6666   -6.7180   -1.1842 C.ar    1  LIG1       -0.0465
     25 C          -1.3489    1.0231    2.9759 C.3     1  LIG1       -0.0208
     26 C           5.6675   -7.7868   -0.7870 C.3     1  LIG1       -0.0174
     27 C           6.1298   -7.7841    0.6864 C.3     1  LIG1        0.0085
     28 C           7.1912   -8.9228    0.6909 C.2     1  LIG1        0.0477
     29 C           6.7887   -6.4623    1.0942 C.3     1  LIG1       -0.0544
     30 C           4.9967   -8.1148    1.6641 C.3     1  LIG1       -0.0544
     31 O           8.3592   -8.5897    0.3363 O.co2   1  LIG1       -0.5493
     32 O           6.7700  -10.0704    1.0158 O.co2   1  LIG1       -0.5493
     33 H           3.1790    0.5405   -1.0576 H       1  LIG1        0.1754
     34 H           0.6856   -0.5940   -2.8806 H       1  LIG1        0.0638
     35 H          -0.9719   -1.7477   -4.3007 H       1  LIG1        0.0633
     36 H           1.3208   -6.0890   -1.1764 H       1  LIG1        0.0624
     37 H           4.5407   -3.7589   -2.8513 H       1  LIG1        0.0624
     38 H          -0.8170   -4.2332   -4.5343 H       1  LIG1        0.0830
     39 H          -1.7916    0.2924    0.3697 H       1  LIG1        0.0848
     40 H           2.9419   -7.7863   -0.4528 H       1  LIG1        0.0620
     41 H           6.1478   -5.4134   -2.0547 H       1  LIG1        0.0620
     42 H           4.6256    0.3326    2.9180 H       1  LIG1        0.0660
     43 H           3.1200   -0.5561    3.1870 H       1  LIG1        0.0660
     44 H           3.2067    1.2216    3.4876 H       1  LIG1        0.0660
     45 H          -0.8614    1.2488    3.9296 H       1  LIG1        0.0293
     46 H          -2.0139    0.1673    3.1258 H       1  LIG1        0.0293
     47 H          -1.9443    1.8941    2.6839 H       1  LIG1        0.0293
     48 H           6.5373   -7.6948   -1.4542 H       1  LIG1        0.0322
     49 H           5.2314   -8.7632   -1.0445 H       1  LIG1        0.0322
     50 H           6.0521   -5.6558    1.1776 H       1  LIG1        0.0239
     51 H           7.5468   -6.1416    0.3708 H       1  LIG1        0.0239
     52 H           7.2843   -6.5574    2.0676 H       1  LIG1        0.0239
     53 H           4.2919   -7.2825    1.7615 H       1  LIG1        0.0239
     54 H           5.3904   -8.3264    2.6651 H       1  LIG1        0.0239
     55 H           4.4273   -8.9952    1.3441 H       1  LIG1        0.0239
@<TRIPOS>BOND
     1     1     5    2
     2     1     4    2
     3     1     3    1
     4     1     2    1
     5     2     6   ar
     6     2     7   ar
     7     3     8    1
     8     6    10   ar
     9     6     9    1
    10     7    11   ar
    11     8    12   ar
    12     8    13   ar
    13     9    14   ar
    14     9    15   ar
    15    10    16   ar
    16    11    16   ar
    17    12    17   ar
    18    12    18    1
    19    13    19   ar
    20    14    20   ar
    21    15    21   ar
    22    17    22   ar
    23    18    23    1
    24    19    22   ar
    25    20    24   ar
    26    21    24   ar
    27    22    25    1
    28    24    26    1
    29    26    27    1
    30    27    30    1
    31    27    29    1
    32    27    28    1
    33    28    32   ar
    34    28    31   ar
    35     3    33    1
    36     7    34    1
    37    11    35    1
    38    14    36    1
    39    15    37    1
    40    16    38    1
    41    19    39    1
    42    20    40    1
    43    21    41    1
    44    23    42    1
    45    23    43    1
    46    23    44    1
    47    25    45    1
    48    25    46    1
    49    25    47    1
    50    26    48    1
    51    26    49    1
    52    29    50    1
    53    29    51    1
    54    29    52    1
    55    30    53    1
    56    30    54    1
    57    30    55    1
@<TRIPOS>MOLECULE
01178588C
 55 57 0 0 0
SMALL
GASTEIGER

@<TRIPOS>ATOM
      1 S           2.7640   -1.6787   -1.0658 S.O2    1  LIG1        0.0756
      2 C           1.6678   -2.4613   -2.2113 C.ar    1  LIG1        0.1344
      3 N           4.0851   -1.2977   -2.0605 N.pl3   1  LIG1       -0.1951
      4 O           3.2295   -2.6442   -0.1003 O.2     1  LIG1       -0.1499
      5 O           2.1135   -0.4625   -0.6164 O.2     1  LIG1       -0.1499
      6 C           1.7049   -3.8203   -2.5082 C.ar    1  LIG1        0.0975
      7 C           0.6423   -1.6740   -2.7632 C.ar    1  LIG1       -0.0315
      8 C           4.5910    0.0123   -1.8419 C.ar    1  LIG1        0.2006
      9 C           2.6881   -4.8104   -2.0423 C.ar    1  LIG1        0.0023
     10 N           0.7643   -4.3806   -3.3305 N.ar    1  LIG1       -0.2530
     11 C          -0.3121   -2.2509   -3.5908 C.ar    1  LIG1       -0.0417
     12 C           3.9721    1.1991   -2.2588 C.ar    1  LIG1        0.2574
     13 N           5.7458   -0.0067   -1.1477 N.ar    1  LIG1       -0.2325
     14 C           4.0400   -4.7601   -2.4159 C.ar    1  LIG1       -0.0523
     15 C           2.2636   -5.9088   -1.2761 C.ar    1  LIG1       -0.0523
     16 C          -0.2117   -3.6022   -3.8400 C.ar    1  LIG1        0.0284
     17 N           4.4984    2.4178   -1.9700 N.ar    1  LIG1       -0.2137
     18 O           2.8365    1.1213   -3.0421 O.3     1  LIG1       -0.4773
     19 C           6.2453    1.2141   -0.8439 C.ar    1  LIG1        0.0510
     20 C           4.9386   -5.7573   -2.0097 C.ar    1  LIG1       -0.0579
     21 C           3.1548   -6.9126   -0.8850 C.ar    1  LIG1       -0.0579
     22 C           5.6395    2.4068   -1.2363 C.ar    1  LIG1        0.0602
     23 C           2.1825    2.3769   -3.1878 C.3     1  LIG1        0.0805
     24 C           4.5033   -6.8476   -1.2444 C.ar    1  LIG1       -0.0465
     25 C           6.2286    3.7235   -0.8368 C.3     1  LIG1       -0.0208
     26 C           5.4568   -7.9623   -0.8580 C.3     1  LIG1       -0.0174
     27 C           5.8592   -8.0549    0.6309 C.3     1  LIG1        0.0085
     28 C           4.7298   -8.6451    1.5174 C.2     1  LIG1        0.0477
     29 C           6.9653   -9.1206    0.7802 C.3     1  LIG1       -0.0544
     30 C           6.3959   -6.7178    1.1549 C.3     1  LIG1       -0.0544
     31 O           4.6076   -8.1414    2.6702 O.co2   1  LIG1       -0.5493
     32 O           4.0773   -9.6038    1.0089 O.co2   1  LIG1       -0.5493
     33 H           4.8326   -1.9422   -1.7913 H       1  LIG1        0.1754
     34 H           0.5740   -0.6123   -2.5362 H       1  LIG1        0.0638
     35 H          -1.1179   -1.6641   -4.0157 H       1  LIG1        0.0633
     36 H           4.4041   -3.9628   -3.0564 H       1  LIG1        0.0624
     37 H           1.2179   -6.0055   -0.9914 H       1  LIG1        0.0624
     38 H          -0.9318   -4.1180   -4.4682 H       1  LIG1        0.0830
     39 H           7.1594    1.2078   -0.2585 H       1  LIG1        0.0848
     40 H           5.9808   -5.6909   -2.3108 H       1  LIG1        0.0620
     41 H           2.7832   -7.7578   -0.3059 H       1  LIG1        0.0620
     42 H           1.2591    2.2086   -3.7504 H       1  LIG1        0.0660
     43 H           2.7958    3.0803   -3.7620 H       1  LIG1        0.0660
     44 H           1.9064    2.7993   -2.2151 H       1  LIG1        0.0660
     45 H           5.6607    4.5526   -1.2714 H       1  LIG1        0.0293
     46 H           7.2632    3.8003   -1.1846 H       1  LIG1        0.0293
     47 H           6.2071    3.8300    0.2524 H       1  LIG1        0.0293
     48 H           6.3707   -7.8475   -1.4585 H       1  LIG1        0.0322
     49 H           5.0193   -8.9076   -1.2074 H       1  LIG1        0.0322
     50 H           7.8734   -8.8222    0.2441 H       1  LIG1        0.0239
     51 H           6.6524  -10.0919    0.3784 H       1  LIG1        0.0239
     52 H           7.2383   -9.2747    1.8314 H       1  LIG1        0.0239
     53 H           7.1969   -6.3357    0.5119 H       1  LIG1        0.0239
     54 H           6.8101   -6.8176    2.1651 H       1  LIG1        0.0239
     55 H           5.6080   -5.9587    1.2053 H       1  LIG1        0.0239
@<TRIPOS>BOND
     1     1     5    2
     2     1     4    2
     3     1     3    1
     4     1     2    1
     5     2     6   ar
     6     2     7   ar
     7     3     8    1
     8     6    10   ar
     9     6     9    1
    10     7    11   ar
    11     8    12   ar
    12     8    13   ar
    13     9    14   ar
    14     9    15   ar
    15    10    16   ar
    16    11    16   ar
    17    12    17   ar
    18    12    18    1
    19    13    19   ar
    20    14    20   ar
    21    15    21   ar
    22    17    22   ar
    23    18    23    1
    24    19    22   ar
    25    20    24   ar
    26    21    24   ar
    27    22    25    1
    28    24    26    1
    29    26    27    1
    30    27    30    1
    31    27    29    1
    32    27    28    1
    33    28    32   ar
    34    28    31   ar
    35     3    33    1
    36     7    34    1
    37    11    35    1
    38    14    36    1
    39    15    37    1
    40    16    38    1
    41    19    39    1
    42    20    40    1
    43    21    41    1
    44    23    42    1
    45    23    43    1
    46    23    44    1
    47    25    45    1
    48    25    46    1
    49    25    47    1
    50    26    48    1
    51    26    49    1
    52    29    50    1
    53    29    51    1
    54    29    52    1
    55    30    53    1
    56    30    54    1
    57    30    55    1
@<TRIPOS>MOLECULE
01178588C
 55 57 0 0 0
SMALL
GASTEIGER

@<TRIPOS>ATOM
      1 S           3.0145   -1.6173   -1.1980 S.O2    1  LIG1        0.0756
      2 C           1.7393   -2.4710   -2.0824 C.ar    1  LIG1        0.1344
      3 N           3.9810   -1.1374   -2.5091 N.pl3   1  LIG1       -0.1951
      4 O           3.7501   -2.5231   -0.3514 O.2     1  LIG1       -0.1499
      5 O           2.3984   -0.4297   -0.6304 O.2     1  LIG1       -0.1499
      6 C           1.7498   -3.8299   -2.3710 C.ar    1  LIG1        0.0975
      7 C           0.6520   -1.6859   -2.5207 C.ar    1  LIG1       -0.0315
      8 C           4.6562    0.0862   -2.2820 C.ar    1  LIG1        0.2006
      9 C           2.7475   -4.8441   -1.9789 C.ar    1  LIG1        0.0023
     10 N           0.7314   -4.3814   -3.1054 N.ar    1  LIG1       -0.2530
     11 C          -0.3792   -2.2616   -3.2497 C.ar    1  LIG1       -0.0417
     12 C           5.7466    0.2684   -1.4243 C.ar    1  LIG1        0.2574
     13 N           4.0994    1.0901   -2.9941 N.ar    1  LIG1       -0.2325
     14 C           4.1181   -4.7378   -2.2591 C.ar    1  LIG1       -0.0523
     15 C           2.3096   -6.0265   -1.3525 C.ar    1  LIG1       -0.0523
     16 C          -0.2926   -3.6078   -3.5192 C.ar    1  LIG1        0.0284
     17 N           6.3028    1.4920   -1.2353 N.ar    1  LIG1       -0.2137
     18 O           6.2897   -0.8320   -0.8021 O.3     1  LIG1       -0.4773
     19 C           4.6487    2.3069   -2.7738 C.ar    1  LIG1        0.0510
     20 C           5.0160   -5.7488   -1.8837 C.ar    1  LIG1       -0.0579
     21 C           3.1983   -7.0440   -0.9971 C.ar    1  LIG1       -0.0579
     22 C           5.7244    2.5154   -1.9117 C.ar    1  LIG1        0.0602
     23 C           7.5680   -0.5855   -0.2310 C.3     1  LIG1        0.0805
     24 C           4.5642   -6.9127   -1.2495 C.ar    1  LIG1       -0.0465
     25 C           6.2689    3.8933   -1.7012 C.3     1  LIG1       -0.0208
     26 C           5.5244   -8.0158   -0.8532 C.3     1  LIG1       -0.0174
     27 C           5.8859   -8.1070    0.6466 C.3     1  LIG1        0.0085
     28 C           4.7154   -8.6691    1.4982 C.2     1  LIG1        0.0477
     29 C           6.9690   -9.1892    0.8308 C.3     1  LIG1       -0.0544
     30 C           6.4318   -6.7762    1.1785 C.3     1  LIG1       -0.0544
     31 O           4.5405   -8.1300    2.6287 O.co2   1  LIG1       -0.5493
     32 O           4.0865   -9.6443    0.9911 O.co2   1  LIG1       -0.5493
     33 H           3.4306   -1.0414   -3.3591 H       1  LIG1        0.1754
     34 H           0.6049   -0.6225   -2.2936 H       1  LIG1        0.0638
     35 H          -1.2241   -1.6760   -3.5929 H       1  LIG1        0.0633
     36 H           4.5192   -3.8629   -2.7606 H       1  LIG1        0.0624
     37 H           1.2524   -6.1708   -1.1378 H       1  LIG1        0.0624
     38 H          -1.0614   -4.1244   -4.0862 H       1  LIG1        0.0830
     39 H           4.1900    3.1285   -3.3141 H       1  LIG1        0.0848
     40 H           6.0765   -5.6175   -2.0825 H       1  LIG1        0.0620
     41 H           2.8155   -7.9422   -0.5128 H       1  LIG1        0.0620
     42 H           7.9390   -1.5301    0.1805 H       1  LIG1        0.0660
     43 H           7.5091    0.1371    0.5892 H       1  LIG1        0.0660
     44 H           8.2824   -0.2550   -0.9937 H       1  LIG1        0.0660
     45 H           7.1329    3.8730   -1.0297 H       1  LIG1        0.0293
     46 H           5.5041    4.5367   -1.2548 H       1  LIG1        0.0293
     47 H           6.5883    4.3248   -2.6551 H       1  LIG1        0.0293
     48 H           6.4494   -7.8843   -1.4326 H       1  LIG1        0.0322
     49 H           5.1091   -8.9662   -1.2156 H       1  LIG1        0.0322
     50 H           7.8966   -8.9080    0.3193 H       1  LIG1        0.0239
     51 H           6.6523  -10.1574    0.4243 H       1  LIG1        0.0239
     52 H           7.2088   -9.3427    1.8902 H       1  LIG1        0.0239
     53 H           7.2598   -6.4142    0.5586 H       1  LIG1        0.0239
     54 H           6.8122   -6.8778    2.2017 H       1  LIG1        0.0239
     55 H           5.6583   -6.0013    1.2002 H       1  LIG1        0.0239
@<TRIPOS>BOND
     1     1     5    2
     2     1     4    2
     3     1     3    1
     4     1     2    1
     5     2     6   ar
     6     2     7   ar
     7     3     8    1
     8     6    10   ar
     9     6     9    1
    10     7    11   ar
    11     8    12   ar
    12     8    13   ar
    13     9    14   ar
    14     9    15   ar
    15    10    16   ar
    16    11    16   ar
    17    12    17   ar
    18    12    18    1
    19    13    19   ar
    20    14    20   ar
    21    15    21   ar
    22    17    22   ar
    23    18    23    1
    24    19    22   ar
    25    20    24   ar
    26    21    24   ar
    27    22    25    1
    28    24    26    1
    29    26    27    1
    30    27    30    1
    31    27    29    1
    32    27    28    1
    33    28    32   ar
    34    28    31   ar
    35     3    33    1
    36     7    34    1
    37    11    35    1
    38    14    36    1
    39    15    37    1
    40    16    38    1
    41    19    39    1
    42    20    40    1
    43    21    41    1
    44    23    42    1
    45    23    43    1
    46    23    44    1
    47    25    45    1
    48    25    46    1
    49    25    47    1
    50    26    48    1
    51    26    49    1
    52    29    50    1
    53    29    51    1
    54    29    52    1
    55    30    53    1
    56    30    54    1
    57    30    55    1
@<TRIPOS>MOLECULE
01178588C
 55 57 0 0 0
SMALL
GASTEIGER

@<TRIPOS>ATOM
      1 S           2.9426   -1.4993   -1.1306 S.O2    1  LIG1        0.0756
      2 C           1.6769   -2.3832   -2.0050 C.ar    1  LIG1        0.1344
      3 N           4.3919   -1.8853   -1.8992 N.pl3   1  LIG1       -0.1951
      4 O           2.9719   -2.0270    0.2162 O.2     1  LIG1       -0.1499
      5 O           2.6727   -0.0840   -1.3216 O.2     1  LIG1       -0.1499
      6 C           1.6863   -3.7631   -2.2061 C.ar    1  LIG1        0.0975
      7 C           0.5953   -1.6348   -2.5033 C.ar    1  LIG1       -0.0315
      8 C           4.6203   -1.1414   -3.0827 C.ar    1  LIG1        0.2006
      9 C           2.7439   -4.7238   -1.8367 C.ar    1  LIG1        0.0023
     10 N           0.6641   -4.3743   -2.8833 N.ar    1  LIG1       -0.2530
     11 C          -0.4395   -2.2655   -3.1826 C.ar    1  LIG1       -0.0417
     12 C           5.1070    0.1748   -3.0822 C.ar    1  LIG1        0.2574
     13 N           4.2108   -1.7725   -4.2005 N.ar    1  LIG1       -0.2325
     14 C           3.2971   -5.5524   -2.8309 C.ar    1  LIG1       -0.0523
     15 C           3.1938   -4.9162   -0.5241 C.ar    1  LIG1       -0.0523
     16 C          -0.3621   -3.6308   -3.3435 C.ar    1  LIG1        0.0284
     17 N           5.2352    0.8925   -4.2261 N.ar    1  LIG1       -0.2137
     18 O           5.5266    0.7223   -1.8872 O.3     1  LIG1       -0.4773
     19 C           4.3476   -1.0448   -5.3363 C.ar    1  LIG1        0.0510
     20 C           4.2748   -6.5060   -2.5331 C.ar    1  LIG1       -0.0579
     21 C           4.2058   -5.8400   -0.2290 C.ar    1  LIG1       -0.0579
     22 C           4.8474    0.2590   -5.3600 C.ar    1  LIG1        0.0602
     23 C           5.6253    2.1393   -1.9311 C.3     1  LIG1        0.0805
     24 C           4.7587   -6.6440   -1.2314 C.ar    1  LIG1       -0.0465
     25 C           4.9627    1.0109   -6.6485 C.3     1  LIG1       -0.0208
     26 C           5.8185   -7.6770   -0.8951 C.3     1  LIG1       -0.0174
     27 C           7.2553   -7.3726   -1.3784 C.3     1  LIG1        0.0085
     28 C           8.1002   -8.5123   -0.7371 C.2     1  LIG1        0.0477
     29 C           7.4290   -7.5176   -2.8954 C.3     1  LIG1       -0.0544
     30 C           7.7367   -5.9874   -0.9343 C.3     1  LIG1       -0.0544
     31 O           7.8432   -9.6813   -1.1500 O.co2   1  LIG1       -0.5493
     32 O           8.9452   -8.1569    0.1323 O.co2   1  LIG1       -0.5493
     33 H           4.4912   -2.8832   -2.0822 H       1  LIG1        0.1754
     34 H           0.5494   -0.5569   -2.3613 H       1  LIG1        0.0638
     35 H          -1.2822   -1.7054   -3.5709 H       1  LIG1        0.0633
     36 H           2.9403   -5.4785   -3.8572 H       1  LIG1        0.0624
     37 H           2.7523   -4.3711    0.3064 H       1  LIG1        0.0624
     38 H          -1.1387   -4.1856   -3.8619 H       1  LIG1        0.0830
     39 H           4.0362   -1.5457   -6.2476 H       1  LIG1        0.0848
     40 H           4.6465   -7.1529   -3.3242 H       1  LIG1        0.0620
     41 H           4.5462   -5.9446    0.7999 H       1  LIG1        0.0620
     42 H           5.8395    2.4902   -0.9167 H       1  LIG1        0.0660
     43 H           4.6815    2.5969   -2.2481 H       1  LIG1        0.0660
     44 H           6.4518    2.4586   -2.5747 H       1  LIG1        0.0660
     45 H           5.4205    1.9925   -6.4858 H       1  LIG1        0.0293
     46 H           3.9716    1.1662   -7.0854 H       1  LIG1        0.0293
     47 H           5.5877    0.4594   -7.3574 H       1  LIG1        0.0293
     48 H           5.4697   -8.6402   -1.2941 H       1  LIG1        0.0322
     49 H           5.8273   -7.8166    0.1960 H       1  LIG1        0.0322
     50 H           7.0003   -6.6661   -3.4335 H       1  LIG1        0.0239
     51 H           6.9498   -8.4265   -3.2773 H       1  LIG1        0.0239
     52 H           8.4898   -7.5699   -3.1681 H       1  LIG1        0.0239
     53 H           7.1791   -5.1873   -1.4334 H       1  LIG1        0.0239
     54 H           8.7963   -5.8411   -1.1751 H       1  LIG1        0.0239
     55 H           7.6224   -5.8500    0.1469 H       1  LIG1        0.0239
@<TRIPOS>BOND
     1     1     5    2
     2     1     4    2
     3     1     3    1
     4     1     2    1
     5     2     6   ar
     6     2     7   ar
     7     3     8    1
     8     6    10   ar
     9     6     9    1
    10     7    11   ar
    11     8    12   ar
    12     8    13   ar
    13     9    14   ar
    14     9    15   ar
    15    10    16   ar
    16    11    16   ar
    17    12    17   ar
    18    12    18    1
    19    13    19   ar
    20    14    20   ar
    21    15    21   ar
    22    17    22   ar
    23    18    23    1
    24    19    22   ar
    25    20    24   ar
    26    21    24   ar
    27    22    25    1
    28    24    26    1
    29    26    27    1
    30    27    30    1
    31    27    29    1
    32    27    28    1
    33    28    32   ar
    34    28    31   ar
    35     3    33    1
    36     7    34    1
    37    11    35    1
    38    14    36    1
    39    15    37    1
    40    16    38    1
    41    19    39    1
    42    20    40    1
    43    21    41    1
    44    23    42    1
    45    23    43    1
    46    23    44    1
    47    25    45    1
    48    25    46    1
    49    25    47    1
    50    26    48    1
    51    26    49    1
    52    29    50    1
    53    29    51    1
    54    29    52    1
    55    30    53    1
    56    30    54    1
    57    30    55    1
@<TRIPOS>MOLECULE
01178588C
 55 57 0 0 0
SMALL
GASTEIGER

@<TRIPOS>ATOM
      1 S           2.7858   -1.6331   -1.0880 S.O2    1  LIG1        0.0756
      2 C           1.6880   -2.4199   -2.2280 C.ar    1  LIG1        0.1344
      3 N           4.1284   -1.2957   -2.0690 N.pl3   1  LIG1       -0.1951
      4 O           3.2162   -2.5886   -0.0935 O.2     1  LIG1       -0.1499
      5 O           2.1532   -0.3945   -0.6736 O.2     1  LIG1       -0.1499
      6 C           1.7156   -3.7829   -2.5075 C.ar    1  LIG1        0.0975
      7 C           0.6662   -1.6328   -2.7874 C.ar    1  LIG1       -0.0315
      8 C           4.6526    0.0089   -1.8589 C.ar    1  LIG1        0.2006
      9 C           2.6964   -4.7737   -2.0366 C.ar    1  LIG1        0.0023
     10 N           0.7684   -4.3474   -3.3194 N.ar    1  LIG1       -0.2530
     11 C          -0.2952   -2.2145   -3.6032 C.ar    1  LIG1       -0.0417
     12 C           4.0882    1.1946   -2.3499 C.ar    1  LIG1        0.2574
     13 N           5.7562   -0.0121   -1.0858 N.ar    1  LIG1       -0.2325
     14 C           4.0474   -4.7314   -2.4141 C.ar    1  LIG1       -0.0523
     15 C           2.2694   -5.8682   -1.2661 C.ar    1  LIG1       -0.0523
     16 C          -0.2051   -3.5696   -3.8343 C.ar    1  LIG1        0.0284
     17 N           4.6166    2.4109   -2.0558 N.ar    1  LIG1       -0.2137
     18 O           2.9982    1.1136   -3.1956 O.3     1  LIG1       -0.4773
     19 C           6.2567    1.2073   -0.7791 C.ar    1  LIG1        0.0510
     20 C           4.9424   -5.7325   -2.0091 C.ar    1  LIG1       -0.0579
     21 C           3.1566   -6.8766   -0.8763 C.ar    1  LIG1       -0.0579
     22 C           5.7024    2.3997   -1.2420 C.ar    1  LIG1        0.0602
     23 C           2.5177    2.3892   -3.6060 C.3     1  LIG1        0.0805
     24 C           4.5040   -6.8197   -1.2410 C.ar    1  LIG1       -0.0465
     25 C           6.2886    3.7156   -0.8363 C.3     1  LIG1       -0.0208
     26 C           5.4525   -7.9409   -0.8604 C.3     1  LIG1       -0.0174
     27 C           5.8557   -8.0437    0.6275 C.3     1  LIG1        0.0085
     28 C           4.7264   -8.6380    1.5113 C.2     1  LIG1        0.0477
     29 C           6.9602   -9.1122    0.7692 C.3     1  LIG1       -0.0544
     30 C           6.3950   -6.7110    1.1597 C.3     1  LIG1       -0.0544
     31 O           4.6079   -8.1435    2.6684 O.co2   1  LIG1       -0.5493
     32 O           4.0698   -9.5904    0.9961 O.co2   1  LIG1       -0.5493
     33 H           4.8574   -1.9482   -1.7692 H       1  LIG1        0.1754
     34 H           0.6055   -0.5677   -2.5738 H       1  LIG1        0.0638
     35 H          -1.0994   -1.6281   -4.0322 H       1  LIG1        0.0633
     36 H           4.4132   -3.9392   -3.0603 H       1  LIG1        0.0624
     37 H           1.2240   -5.9597   -0.9787 H       1  LIG1        0.0624
     38 H          -0.9318   -4.0892   -4.4519 H       1  LIG1        0.0830
     39 H           7.1274    1.2004   -0.1306 H       1  LIG1        0.0848
     40 H           5.9833   -5.6730   -2.3156 H       1  LIG1        0.0620
     41 H           2.7820   -7.7193   -0.2956 H       1  LIG1        0.0620
     42 H           1.6498    2.2276   -4.2526 H       1  LIG1        0.0660
     43 H           3.2709    2.9265   -4.1931 H       1  LIG1        0.0660
     44 H           2.1869    2.9867   -2.7492 H       1  LIG1        0.0660
     45 H           5.7432    4.5446   -1.2986 H       1  LIG1        0.0293
     46 H           7.3352    3.7789   -1.1495 H       1  LIG1        0.0293
     47 H           6.2309    3.8348    0.2503 H       1  LIG1        0.0293
     48 H           6.3668   -7.8269   -1.4607 H       1  LIG1        0.0322
     49 H           5.0106   -8.8821   -1.2150 H       1  LIG1        0.0322
     50 H           7.8682   -8.8121    0.2339 H       1  LIG1        0.0239
     51 H           6.6453  -10.0806    0.3617 H       1  LIG1        0.0239
     52 H           7.2342   -9.2732    1.8191 H       1  LIG1        0.0239
     53 H           7.1956   -6.3256    0.5182 H       1  LIG1        0.0239
     54 H           6.8104   -6.8181    2.1686 H       1  LIG1        0.0239
     55 H           5.6082   -5.9512    1.2163 H       1  LIG1        0.0239
@<TRIPOS>BOND
     1     1     5    2
     2     1     4    2
     3     1     3    1
     4     1     2    1
     5     2     6   ar
     6     2     7   ar
     7     3     8    1
     8     6    10   ar
     9     6     9    1
    10     7    11   ar
    11     8    12   ar
    12     8    13   ar
    13     9    14   ar
    14     9    15   ar
    15    10    16   ar
    16    11    16   ar
    17    12    17   ar
    18    12    18    1
    19    13    19   ar
    20    14    20   ar
    21    15    21   ar
    22    17    22   ar
    23    18    23    1
    24    19    22   ar
    25    20    24   ar
    26    21    24   ar
    27    22    25    1
    28    24    26    1
    29    26    27    1
    30    27    30    1
    31    27    29    1
    32    27    28    1
    33    28    32   ar
    34    28    31   ar
    35     3    33    1
    36     7    34    1
    37    11    35    1
    38    14    36    1
    39    15    37    1
    40    16    38    1
    41    19    39    1
    42    20    40    1
    43    21    41    1
    44    23    42    1
    45    23    43    1
    46    23    44    1
    47    25    45    1
    48    25    46    1
    49    25    47    1
    50    26    48    1
    51    26    49    1
    52    29    50    1
    53    29    51    1
    54    29    52    1
    55    30    53    1
    56    30    54    1
    57    30    55    1
@<TRIPOS>MOLECULE
01178588C
 55 57 0 0 0
SMALL
GASTEIGER

@<TRIPOS>ATOM
      1 S           2.9616   -1.5447   -1.3199 S.O2    1  LIG1        0.0756
      2 C           1.6179   -2.4296   -2.0583 C.ar    1  LIG1        0.1344
      3 N           4.3345   -2.0804   -2.1519 N.pl3   1  LIG1       -0.1951
      4 O           3.0406   -1.9700    0.0600 O.2     1  LIG1       -0.1499
      5 O           2.7400   -0.1398   -1.6153 O.2     1  LIG1       -0.1499
      6 C           1.5971   -3.8095   -2.2466 C.ar    1  LIG1        0.0975
      7 C           0.5104   -1.6704   -2.4807 C.ar    1  LIG1       -0.0315
      8 C           5.3038   -1.0356   -2.2714 C.ar    1  LIG1        0.2006
      9 C           2.6641   -4.7873   -1.9505 C.ar    1  LIG1        0.0023
     10 N           0.5103   -4.4117   -2.8302 N.ar    1  LIG1       -0.2530
     11 C          -0.5815   -2.2898   -3.0732 C.ar    1  LIG1       -0.0417
     12 C           6.1068   -0.6152   -1.1993 C.ar    1  LIG1        0.2574
     13 N           5.2608   -0.3757   -3.4486 N.ar    1  LIG1       -0.2325
     14 C           3.2681   -4.9312   -0.6947 C.ar    1  LIG1       -0.0523
     15 C           3.0616   -5.6894   -2.9566 C.ar    1  LIG1       -0.0523
     16 C          -0.5357   -3.6569   -3.2229 C.ar    1  LIG1        0.0284
     17 N           6.9060    0.4782   -1.2771 N.ar    1  LIG1       -0.2137
     18 O           6.0306   -1.3325   -0.0230 O.3     1  LIG1       -0.4773
     19 C           6.0726    0.7049   -3.5194 C.ar    1  LIG1        0.0510
     20 C           4.2757   -5.8818   -0.4778 C.ar    1  LIG1       -0.0579
     21 C           4.0255   -6.6753   -2.7270 C.ar    1  LIG1       -0.0579
     22 C           6.8799    1.1319   -2.4643 C.ar    1  LIG1        0.0602
     23 C           6.8922   -0.8437    0.9960 C.3     1  LIG1        0.0805
     24 C           4.6591   -6.7705   -1.4883 C.ar    1  LIG1       -0.0465
     25 C           7.7272    2.3570   -2.6040 C.3     1  LIG1       -0.0208
     26 C           5.6943   -7.8416   -1.2116 C.3     1  LIG1       -0.0174
     27 C           7.1015   -7.6516   -1.8203 C.3     1  LIG1        0.0085
     28 C           7.7823   -6.3770   -1.2571 C.2     1  LIG1        0.0477
     29 C           8.0067   -8.7985   -1.3274 C.3     1  LIG1       -0.0544
     30 C           7.0835   -7.6873   -3.3532 C.3     1  LIG1       -0.0544
     31 O           7.6385   -6.1805   -0.0151 O.co2   1  LIG1       -0.5493
     32 O           8.4437   -5.6900   -2.0878 O.co2   1  LIG1       -0.5493
     33 H           4.7596   -2.8340   -1.5971 H       1  LIG1        0.1754
     34 H           0.4958   -0.5896   -2.3539 H       1  LIG1        0.0638
     35 H          -1.4388   -1.7184   -3.4089 H       1  LIG1        0.0633
     36 H           2.9621   -4.3248    0.1527 H       1  LIG1        0.0624
     37 H           2.5952   -5.6409   -3.9392 H       1  LIG1        0.0624
     38 H          -1.3550   -4.2042   -3.6793 H       1  LIG1        0.0830
     39 H           6.0492    1.2375   -4.4643 H       1  LIG1        0.0848
     40 H           4.7617   -5.9345    0.4967 H       1  LIG1        0.0620
     41 H           4.2755   -7.3661   -3.5269 H       1  LIG1        0.0620
     42 H           6.7731   -1.4883    1.8725 H       1  LIG1        0.0660
     43 H           6.6130    0.1733    1.2935 H       1  LIG1        0.0660
     44 H           7.9423   -0.8879    0.6882 H       1  LIG1        0.0660
     45 H           8.3524    2.5015   -1.7168 H       1  LIG1        0.0293
     46 H           7.0934    3.2414   -2.7221 H       1  LIG1        0.0293
     47 H           8.3865    2.2686   -3.4729 H       1  LIG1        0.0293
     48 H           5.2756   -8.7968   -1.5602 H       1  LIG1        0.0322
     49 H           5.7747   -7.9677   -0.1224 H       1  LIG1        0.0322
     50 H           7.6281   -9.7693   -1.6684 H       1  LIG1        0.0239
     51 H           8.0647   -8.8350   -0.2334 H       1  LIG1        0.0239
     52 H           9.0312   -8.6912   -1.7037 H       1  LIG1        0.0239
     53 H           6.5267   -8.5559   -3.7226 H       1  LIG1        0.0239
     54 H           8.0976   -7.7552   -3.7651 H       1  LIG1        0.0239
     55 H           6.6336   -6.7839   -3.7774 H       1  LIG1        0.0239
@<TRIPOS>BOND
     1     1     5    2
     2     1     4    2
     3     1     3    1
     4     1     2    1
     5     2     6   ar
     6     2     7   ar
     7     3     8    1
     8     6    10   ar
     9     6     9    1
    10     7    11   ar
    11     8    12   ar
    12     8    13   ar
    13     9    14   ar
    14     9    15   ar
    15    10    16   ar
    16    11    16   ar
    17    12    17   ar
    18    12    18    1
    19    13    19   ar
    20    14    20   ar
    21    15    21   ar
    22    17    22   ar
    23    18    23    1
    24    19    22   ar
    25    20    24   ar
    26    21    24   ar
    27    22    25    1
    28    24    26    1
    29    26    27    1
    30    27    30    1
    31    27    29    1
    32    27    28    1
    33    28    32   ar
    34    28    31   ar
    35     3    33    1
    36     7    34    1
    37    11    35    1
    38    14    36    1
    39    15    37    1
    40    16    38    1
    41    19    39    1
    42    20    40    1
    43    21    41    1
    44    23    42    1
    45    23    43    1
    46    23    44    1
    47    25    45    1
    48    25    46    1
    49    25    47    1
    50    26    48    1
    51    26    49    1
    52    29    50    1
    53    29    51    1
    54    29    52    1
    55    30    53    1
    56    30    54    1
    57    30    55    1
@<TRIPOS>MOLECULE
01178588C
 55 57 0 0 0
SMALL
GASTEIGER

@<TRIPOS>ATOM
      1 S           2.9128   -1.6026   -1.2106 S.O2    1  LIG1        0.0756
      2 C           1.6803   -2.4174   -2.1802 C.ar    1  LIG1        0.1344
      3 N           2.8586   -2.4189    0.2755 N.pl3   1  LIG1       -0.1951
      4 O           2.4583   -0.2364   -1.0270 O.2     1  LIG1       -0.1499
      5 O           4.1972   -1.8356   -1.8332 O.2     1  LIG1       -0.1499
      6 C           1.7214   -3.7754   -2.4796 C.ar    1  LIG1        0.0975
      7 C           0.6156   -1.6458   -2.6758 C.ar    1  LIG1       -0.0315
      8 C           3.3869   -1.5929    1.3186 C.ar    1  LIG1        0.2006
      9 C           2.7032   -4.7627   -2.0020 C.ar    1  LIG1        0.0023
     10 N           0.7461   -4.3525   -3.2469 N.ar    1  LIG1       -0.2530
     11 C          -0.3729   -2.2385   -3.4511 C.ar    1  LIG1       -0.0417
     12 C           4.7659   -1.4535    1.5415 C.ar    1  LIG1        0.2574
     13 N           2.4735   -0.8162    1.9362 N.ar    1  LIG1       -0.2325
     14 C           4.0490   -4.7508   -2.3957 C.ar    1  LIG1       -0.0523
     15 C           2.2746   -5.8248   -1.1891 C.ar    1  LIG1       -0.0523
     16 C          -0.2627   -3.5874   -3.7100 C.ar    1  LIG1        0.0284
     17 N           5.2737   -0.5304    2.3941 N.ar    1  LIG1       -0.2137
     18 O           5.6101   -2.2969    0.8470 O.3     1  LIG1       -0.4773
     19 C           2.9891    0.1032    2.7852 C.ar    1  LIG1        0.0510
     20 C           4.9384   -5.7465   -1.9688 C.ar    1  LIG1       -0.0579
     21 C           3.1536   -6.8318   -0.7815 C.ar    1  LIG1       -0.0579
     22 C           4.3574    0.2553    3.0123 C.ar    1  LIG1        0.0602
     23 C           6.9866   -2.0182    1.0642 C.3     1  LIG1        0.0805
     24 C           4.4965   -6.8041   -1.1659 C.ar    1  LIG1       -0.0465
     25 C           4.8594    1.3281    3.9273 C.3     1  LIG1       -0.0208
     26 C           5.4329   -7.9299   -0.7719 C.3     1  LIG1       -0.0174
     27 C           5.8821   -7.9781    0.7045 C.3     1  LIG1        0.0085
     28 C           4.7193   -8.4265    1.6288 C.2     1  LIG1        0.0477
     29 C           6.9186   -9.1075    0.8729 C.3     1  LIG1       -0.0544
     30 C           6.5248   -6.6566    1.1426 C.3     1  LIG1       -0.0544
     31 O           4.0808   -9.4519    1.2498 O.co2   1  LIG1       -0.5493
     32 O           4.5394   -7.7328    2.6687 O.co2   1  LIG1       -0.5493
     33 H           3.4679   -3.2422    0.1957 H       1  LIG1        0.1754
     34 H           0.5467   -0.5825   -2.4559 H       1  LIG1        0.0638
     35 H          -1.2053   -1.6626   -3.8381 H       1  LIG1        0.0633
     36 H           4.4235   -3.9786   -3.0638 H       1  LIG1        0.0624
     37 H           1.2305   -5.8976   -0.8893 H       1  LIG1        0.0624
     38 H          -1.0021   -4.1117   -4.3080 H       1  LIG1        0.0830
     39 H           2.2596    0.7394    3.2758 H       1  LIG1        0.0848
     40 H           5.9762   -5.7037   -2.2902 H       1  LIG1        0.0620
     41 H           2.7744   -7.6548   -0.1754 H       1  LIG1        0.0620
     42 H           7.5687   -2.7287    0.4694 H       1  LIG1        0.0660
     43 H           7.2622   -2.1587    2.1150 H       1  LIG1        0.0660
     44 H           7.2434   -1.0093    0.7222 H       1  LIG1        0.0660
     45 H           5.9453    1.2600    4.0485 H       1  LIG1        0.0293
     46 H           4.4000    1.2340    4.9160 H       1  LIG1        0.0293
     47 H           4.6242    2.3143    3.5145 H       1  LIG1        0.0293
     48 H           6.3283   -7.8656   -1.4071 H       1  LIG1        0.0322
     49 H           4.9563   -8.8745   -1.0681 H       1  LIG1        0.0322
     50 H           7.8354   -8.8861    0.3147 H       1  LIG1        0.0239
     51 H           6.5392  -10.0690    0.5064 H       1  LIG1        0.0239
     52 H           7.1951   -9.2450    1.9250 H       1  LIG1        0.0239
     53 H           7.3434   -6.3737    0.4713 H       1  LIG1        0.0239
     54 H           6.9425   -6.7319    2.1537 H       1  LIG1        0.0239
     55 H           5.7991   -5.8362    1.1561 H       1  LIG1        0.0239
@<TRIPOS>BOND
     1     1     5    2
     2     1     4    2
     3     1     3    1
     4     1     2    1
     5     2     6   ar
     6     2     7   ar
     7     3     8    1
     8     6    10   ar
     9     6     9    1
    10     7    11   ar
    11     8    12   ar
    12     8    13   ar
    13     9    14   ar
    14     9    15   ar
    15    10    16   ar
    16    11    16   ar
    17    12    17   ar
    18    12    18    1
    19    13    19   ar
    20    14    20   ar
    21    15    21   ar
    22    17    22   ar
    23    18    23    1
    24    19    22   ar
    25    20    24   ar
    26    21    24   ar
    27    22    25    1
    28    24    26    1
    29    26    27    1
    30    27    30    1
    31    27    29    1
    32    27    28    1
    33    28    32   ar
    34    28    31   ar
    35     3    33    1
    36     7    34    1
    37    11    35    1
    38    14    36    1
    39    15    37    1
    40    16    38    1
    41    19    39    1
    42    20    40    1
    43    21    41    1
    44    23    42    1
    45    23    43    1
    46    23    44    1
    47    25    45    1
    48    25    46    1
    49    25    47    1
    50    26    48    1
    51    26    49    1
    52    29    50    1
    53    29    51    1
    54    29    52    1
    55    30    53    1
    56    30    54    1
    57    30    55    1
@<TRIPOS>MOLECULE
01178588C
 55 57 0 0 0
SMALL
GASTEIGER

@<TRIPOS>ATOM
      1 S           2.7846   -1.6119   -1.1023 S.O2    1  LIG1        0.0756
      2 C           1.6956   -2.4018   -2.2494 C.ar    1  LIG1        0.1344
      3 N           4.1686   -1.3418   -2.0464 N.pl3   1  LIG1       -0.1951
      4 O           3.1513   -2.5510   -0.0699 O.2     1  LIG1       -0.1499
      5 O           2.1786   -0.3427   -0.7456 O.2     1  LIG1       -0.1499
      6 C           1.7213   -3.7672   -2.5164 C.ar    1  LIG1        0.0975
      7 C           0.6780   -1.6179   -2.8201 C.ar    1  LIG1       -0.0315
      8 C           4.7077   -0.0390   -1.8672 C.ar    1  LIG1        0.2006
      9 C           2.7000   -4.7552   -2.0344 C.ar    1  LIG1        0.0023
     10 N           0.7752   -4.3377   -3.3252 N.ar    1  LIG1       -0.2530
     11 C          -0.2830   -2.2052   -3.6323 C.ar    1  LIG1       -0.0417
     12 C           4.2045    1.1282   -2.4600 C.ar    1  LIG1        0.2574
     13 N           5.7432   -0.0344   -1.0055 N.ar    1  LIG1       -0.2325
     14 C           4.0494   -4.7234   -2.4189 C.ar    1  LIG1       -0.0523
     15 C           2.2716   -5.8402   -1.2511 C.ar    1  LIG1       -0.0523
     16 C          -0.1956   -3.5629   -3.8495 C.ar    1  LIG1        0.0284
     17 N           4.7249    2.3515   -2.1804 N.ar    1  LIG1       -0.2137
     18 O           3.1784    1.0183   -3.3790 O.3     1  LIG1       -0.4773
     19 C           6.2344    1.1926   -0.7157 C.ar    1  LIG1        0.0510
     20 C           4.9408   -5.7263   -2.0105 C.ar    1  LIG1       -0.0579
     21 C           3.1552   -6.8504   -0.8581 C.ar    1  LIG1       -0.0579
     22 C           5.7374    2.3678   -1.2770 C.ar    1  LIG1        0.0602
     23 C           2.8531    2.2590   -3.9969 C.3     1  LIG1        0.0805
     24 C           4.5006   -6.8055   -1.2324 C.ar    1  LIG1       -0.0465
     25 C           6.3080    3.6947   -0.8852 C.3     1  LIG1       -0.0208
     26 C           5.4425   -7.9340   -0.8570 C.3     1  LIG1       -0.0174
     27 C           5.8581   -8.0389    0.6272 C.3     1  LIG1        0.0085
     28 C           4.7334   -8.6225    1.5240 C.2     1  LIG1        0.0477
     29 C           6.9538   -9.1176    0.7593 C.3     1  LIG1       -0.0544
     30 C           6.4146   -6.7106    1.1524 C.3     1  LIG1       -0.0544
     31 O           4.0562   -9.5625    1.0131 O.co2   1  LIG1       -0.5493
     32 O           4.6400   -8.1337    2.6866 O.co2   1  LIG1       -0.5493
     33 H           4.8708   -1.9966   -1.6923 H       1  LIG1        0.1754
     34 H           0.6181   -0.5506   -2.6164 H       1  LIG1        0.0638
     35 H          -1.0852   -1.6215   -4.0677 H       1  LIG1        0.0633
     36 H           4.4150   -3.9404   -3.0760 H       1  LIG1        0.0624
     37 H           1.2271   -5.9236   -0.9581 H       1  LIG1        0.0624
     38 H          -0.9227   -4.0869   -4.4630 H       1  LIG1        0.0830
     39 H           7.0484    1.2070    0.0027 H       1  LIG1        0.0848
     40 H           5.9799   -5.6764   -2.3253 H       1  LIG1        0.0620
     41 H           2.7786   -7.6871   -0.2699 H       1  LIG1        0.0620
     42 H           2.0548    2.0737   -4.7222 H       1  LIG1        0.0660
     43 H           3.7098    2.6631   -4.5481 H       1  LIG1        0.0660
     44 H           2.4776    2.9847   -3.2669 H       1  LIG1        0.0660
     45 H           5.7838    4.5102   -1.3939 H       1  LIG1        0.0293
     46 H           7.3671    3.7474   -1.1556 H       1  LIG1        0.0293
     47 H           6.2048    3.8466    0.1939 H       1  LIG1        0.0293
     48 H           6.3525   -7.8290   -1.4652 H       1  LIG1        0.0322
     49 H           4.9897   -8.8721   -1.2065 H       1  LIG1        0.0322
     50 H           7.8584   -8.8280    0.2123 H       1  LIG1        0.0239
     51 H           6.6247  -10.0841    0.3586 H       1  LIG1        0.0239
     52 H           7.2389   -9.2783    1.8063 H       1  LIG1        0.0239
     53 H           7.2111   -6.3322    0.5018 H       1  LIG1        0.0239
     54 H           6.8406   -6.8206    2.1566 H       1  LIG1        0.0239
     55 H           5.6346   -5.9444    1.2175 H       1  LIG1        0.0239
@<TRIPOS>BOND
     1     1     5    2
     2     1     4    2
     3     1     3    1
     4     1     2    1
     5     2     6   ar
     6     2     7   ar
     7     3     8    1
     8     6    10   ar
     9     6     9    1
    10     7    11   ar
    11     8    12   ar
    12     8    13   ar
    13     9    14   ar
    14     9    15   ar
    15    10    16   ar
    16    11    16   ar
    17    12    17   ar
    18    12    18    1
    19    13    19   ar
    20    14    20   ar
    21    15    21   ar
    22    17    22   ar
    23    18    23    1
    24    19    22   ar
    25    20    24   ar
    26    21    24   ar
    27    22    25    1
    28    24    26    1
    29    26    27    1
    30    27    30    1
    31    27    29    1
    32    27    28    1
    33    28    32   ar
    34    28    31   ar
    35     3    33    1
    36     7    34    1
    37    11    35    1
    38    14    36    1
    39    15    37    1
    40    16    38    1
    41    19    39    1
    42    20    40    1
    43    21    41    1
    44    23    42    1
    45    23    43    1
    46    23    44    1
    47    25    45    1
    48    25    46    1
    49    25    47    1
    50    26    48    1
    51    26    49    1
    52    29    50    1
    53    29    51    1
    54    29    52    1
    55    30    53    1
    56    30    54    1
    57    30    55    1
@<TRIPOS>MOLECULE
01178588C
 55 57 0 0 0
SMALL
GASTEIGER

@<TRIPOS>ATOM
      1 S           3.0301   -1.7188   -1.2475 S.O2    1  LIG1        0.0756
      2 C           1.7748   -2.4446   -2.2553 C.ar    1  LIG1        0.1344
      3 N           2.5050   -0.1199   -0.9939 N.pl3   1  LIG1       -0.1951
      4 O           4.2666   -1.6880   -1.9974 O.2     1  LIG1       -0.1499
      5 O           2.9273   -2.3216    0.0642 O.2     1  LIG1       -0.1499
      6 C           1.7933   -3.8109   -2.5380 C.ar    1  LIG1        0.0975
      7 C           0.7077   -1.6668   -2.7288 C.ar    1  LIG1       -0.0315
      8 C           3.3877    0.8664   -1.5086 C.ar    1  LIG1        0.2006
      9 C           2.8192   -4.7814   -2.1162 C.ar    1  LIG1        0.0023
     10 N           0.7883   -4.3873   -3.2633 N.ar    1  LIG1       -0.2530
     11 C          -0.3046   -2.2606   -3.4739 C.ar    1  LIG1       -0.0417
     12 C           3.6453    1.0916   -2.8684 C.ar    1  LIG1        0.2574
     13 N           3.9863    1.5667   -0.5236 N.ar    1  LIG1       -0.2325
     14 C           2.4612   -5.9003   -1.3446 C.ar    1  LIG1       -0.0523
     15 C           4.1583   -4.6766   -2.5203 C.ar    1  LIG1       -0.0523
     16 C          -0.2218   -3.6161   -3.7116 C.ar    1  LIG1        0.0284
     17 N           4.5343    2.0285   -3.2830 N.ar    1  LIG1       -0.2137
     18 O           2.9157    0.3907   -3.8070 O.3     1  LIG1       -0.4773
     19 C           4.8987    2.4722   -0.9508 C.ar    1  LIG1        0.0510
     20 C           3.4096   -6.8559   -0.9615 C.ar    1  LIG1       -0.0579
     21 C           5.1139   -5.6159   -2.1169 C.ar    1  LIG1       -0.0579
     22 C           5.1781    2.7024   -2.2978 C.ar    1  LIG1        0.0602
     23 C           3.5071    0.4249   -5.1011 C.3     1  LIG1        0.0805
     24 C           4.7490   -6.7152   -1.3326 C.ar    1  LIG1       -0.0465
     25 C           6.2237    3.6953   -2.6980 C.3     1  LIG1       -0.0208
     26 C           5.7802   -7.7383   -0.9041 C.3     1  LIG1       -0.0174
     27 C           5.9523   -8.9708   -1.8193 C.3     1  LIG1        0.0085
     28 C           4.7828   -9.9817   -1.6739 C.2     1  LIG1        0.0477
     29 C           6.2074   -8.5751   -3.2793 C.3     1  LIG1       -0.0544
     30 C           7.1592   -9.7897   -1.3181 C.3     1  LIG1       -0.0544
     31 O           4.3153  -10.1193   -0.5054 O.co2   1  LIG1       -0.5493
     32 O           4.4586  -10.6069   -2.7247 O.co2   1  LIG1       -0.5493
     33 H           2.4054    0.0090    0.0134 H       1  LIG1        0.1754
     34 H           0.6458   -0.6021   -2.5270 H       1  LIG1        0.0638
     35 H          -1.1389   -1.6813   -3.8524 H       1  LIG1        0.0633
     36 H           1.4243   -6.0517   -1.0519 H       1  LIG1        0.0624
     37 H           4.4795   -3.8688   -3.1726 H       1  LIG1        0.0624
     38 H          -0.9834   -4.1406   -4.2812 H       1  LIG1        0.0830
     39 H           5.4164    3.0142   -0.1655 H       1  LIG1        0.0848
     40 H           3.0966   -7.7250   -0.3825 H       1  LIG1        0.0620
     41 H           6.1453   -5.4965   -2.4381 H       1  LIG1        0.0620
     42 H           2.9319   -0.2455   -5.7471 H       1  LIG1        0.0660
     43 H           4.5405    0.0613   -5.0787 H       1  LIG1        0.0660
     44 H           3.4528    1.4298   -5.5335 H       1  LIG1        0.0660
     45 H           6.2673    3.7968   -3.7871 H       1  LIG1        0.0293
     46 H           7.2071    3.3677   -2.3464 H       1  LIG1        0.0293
     47 H           5.9990    4.6783   -2.2733 H       1  LIG1        0.0293
     48 H           5.5504   -8.0430    0.1262 H       1  LIG1        0.0322
     49 H           6.7457   -7.2186   -0.8201 H       1  LIG1        0.0322
     50 H           7.0218   -7.8457   -3.3545 H       1  LIG1        0.0239
     51 H           5.3141   -8.1414   -3.7417 H       1  LIG1        0.0239
     52 H           6.4926   -9.4405   -3.8889 H       1  LIG1        0.0239
     53 H           8.0860   -9.2095   -1.3973 H       1  LIG1        0.0239
     54 H           7.2948  -10.7084   -1.9016 H       1  LIG1        0.0239
     55 H           7.0441  -10.0833   -0.2680 H       1  LIG1        0.0239
@<TRIPOS>BOND
     1     1     5    2
     2     1     4    2
     3     1     3    1
     4     1     2    1
     5     2     6   ar
     6     2     7   ar
     7     3     8    1
     8     6    10   ar
     9     6     9    1
    10     7    11   ar
    11     8    12   ar
    12     8    13   ar
    13     9    14   ar
    14     9    15   ar
    15    10    16   ar
    16    11    16   ar
    17    12    17   ar
    18    12    18    1
    19    13    19   ar
    20    14    20   ar
    21    15    21   ar
    22    17    22   ar
    23    18    23    1
    24    19    22   ar
    25    20    24   ar
    26    21    24   ar
    27    22    25    1
    28    24    26    1
    29    26    27    1
    30    27    30    1
    31    27    29    1
    32    27    28    1
    33    28    32   ar
    34    28    31   ar
    35     3    33    1
    36     7    34    1
    37    11    35    1
    38    14    36    1
    39    15    37    1
    40    16    38    1
    41    19    39    1
    42    20    40    1
    43    21    41    1
    44    23    42    1
    45    23    43    1
    46    23    44    1
    47    25    45    1
    48    25    46    1
    49    25    47    1
    50    26    48    1
    51    26    49    1
    52    29    50    1
    53    29    51    1
    54    29    52    1
    55    30    53    1
    56    30    54    1
    57    30    55    1
@<TRIPOS>MOLECULE
01178588C
 55 57 0 0 0
SMALL
GASTEIGER

@<TRIPOS>ATOM
      1 S           2.8399   -1.5452   -1.2294 S.O2    1  LIG1        0.0756
      2 C           1.7352   -2.3977   -2.3066 C.ar    1  LIG1        0.1344
      3 N           2.2925    0.0542   -1.1289 N.pl3   1  LIG1       -0.1951
      4 O           4.0942   -1.4039   -1.9405 O.2     1  LIG1       -0.1499
      5 O           2.7679   -2.1301    0.0909 O.2     1  LIG1       -0.1499
      6 C           1.7704   -3.7836   -2.5028 C.ar    1  LIG1        0.0975
      7 C           0.7493   -1.6344   -2.9670 C.ar    1  LIG1       -0.0315
      8 C           1.3950    0.3151   -0.0634 C.ar    1  LIG1        0.2006
      9 C           2.7318   -4.8318   -2.0050 C.ar    1  LIG1        0.0023
     10 N           0.8071   -4.3536   -3.3050 N.ar    1  LIG1       -0.2530
     11 C          -0.2084   -2.2415   -3.7644 C.ar    1  LIG1       -0.0417
     12 C           1.8307    0.7416    1.1980 C.ar    1  LIG1        0.2574
     13 N           0.0960    0.1042   -0.3542 N.ar    1  LIG1       -0.2325
     14 C           4.0332   -4.6117   -1.5293 C.ar    1  LIG1       -0.0523
     15 C           2.3597   -6.1981   -2.0892 C.ar    1  LIG1       -0.0523
     16 C          -0.1435   -3.6037   -3.8953 C.ar    1  LIG1        0.0284
     17 N           0.9648    1.0302    2.1987 N.ar    1  LIG1       -0.2137
     18 O           3.1839    0.9611    1.3740 O.3     1  LIG1       -0.4773
     19 C          -0.7595    0.3694    0.6606 C.ar    1  LIG1        0.0510
     20 C           4.8930   -5.6642   -1.1568 C.ar    1  LIG1       -0.0579
     21 C           3.2200   -7.2539   -1.7547 C.ar    1  LIG1       -0.0579
     22 C          -0.3461    0.8278    1.9115 C.ar    1  LIG1        0.0602
     23 C           3.5464    1.0032    2.7509 C.3     1  LIG1        0.0805
     24 C           4.5018   -6.9965   -1.2811 C.ar    1  LIG1       -0.0465
     25 C          -1.3526    1.1407    2.9738 C.3     1  LIG1       -0.0208
     26 C           5.4574   -8.1270   -0.9551 C.3     1  LIG1       -0.0174
     27 C           5.3209   -8.7572    0.4483 C.3     1  LIG1        0.0085
     28 C           6.4366   -9.8428    0.4286 C.2     1  LIG1        0.0477
     29 C           5.6121   -7.7548    1.5702 C.3     1  LIG1       -0.0544
     30 C           3.9494   -9.4013    0.6800 C.3     1  LIG1       -0.0544
     31 O           7.6116   -9.4283    0.6496 O.co2   1  LIG1       -0.5493
     32 O           6.0595  -11.0207    0.1640 O.co2   1  LIG1       -0.5493
     33 H           3.1222    0.6481   -1.1154 H       1  LIG1        0.1754
     34 H           0.7017   -0.5546   -2.8581 H       1  LIG1        0.0638
     35 H          -0.9824   -1.6652   -4.2562 H       1  LIG1        0.0633
     36 H           4.4715   -3.6285   -1.4520 H       1  LIG1        0.0624
     37 H           1.3731   -6.4733   -2.4604 H       1  LIG1        0.0624
     38 H          -0.8630   -4.1540   -4.4934 H       1  LIG1        0.0830
     39 H          -1.8092    0.2093    0.4351 H       1  LIG1        0.0848
     40 H           5.8913   -5.4288   -0.7910 H       1  LIG1        0.0620
     41 H           2.8815   -8.2796   -1.8819 H       1  LIG1        0.0620
     42 H           4.6389    1.0307    2.8073 H       1  LIG1        0.0660
     43 H           3.2077    0.1075    3.2839 H       1  LIG1        0.0660
     44 H           3.1650    1.9120    3.2289 H       1  LIG1        0.0660
     45 H          -0.8574    1.4210    3.9089 H       1  LIG1        0.0293
     46 H          -1.9835    0.2685    3.1699 H       1  LIG1        0.0293
     47 H          -1.9840    1.9772    2.6578 H       1  LIG1        0.0293
     48 H           6.4814   -7.7539   -1.1042 H       1  LIG1        0.0322
     49 H           5.3357   -8.9002   -1.7281 H       1  LIG1        0.0322
     50 H           4.8073   -7.0181    1.6681 H       1  LIG1        0.0239
     51 H           6.5428   -7.2032    1.3966 H       1  LIG1        0.0239
     52 H           5.7100   -8.2667    2.5348 H       1  LIG1        0.0239
     53 H           3.1637   -8.6473    0.7956 H       1  LIG1        0.0239
     54 H           3.9497  -10.0112    1.5909 H       1  LIG1        0.0239
     55 H           3.6626  -10.0553   -0.1516 H       1  LIG1        0.0239
@<TRIPOS>BOND
     1     1     5    2
     2     1     4    2
     3     1     3    1
     4     1     2    1
     5     2     6   ar
     6     2     7   ar
     7     3     8    1
     8     6    10   ar
     9     6     9    1
    10     7    11   ar
    11     8    12   ar
    12     8    13   ar
    13     9    14   ar
    14     9    15   ar
    15    10    16   ar
    16    11    16   ar
    17    12    17   ar
    18    12    18    1
    19    13    19   ar
    20    14    20   ar
    21    15    21   ar
    22    17    22   ar
    23    18    23    1
    24    19    22   ar
    25    20    24   ar
    26    21    24   ar
    27    22    25    1
    28    24    26    1
    29    26    27    1
    30    27    30    1
    31    27    29    1
    32    27    28    1
    33    28    32   ar
    34    28    31   ar
    35     3    33    1
    36     7    34    1
    37    11    35    1
    38    14    36    1
    39    15    37    1
    40    16    38    1
    41    19    39    1
    42    20    40    1
    43    21    41    1
    44    23    42    1
    45    23    43    1
    46    23    44    1
    47    25    45    1
    48    25    46    1
    49    25    47    1
    50    26    48    1
    51    26    49    1
    52    29    50    1
    53    29    51    1
    54    29    52    1
    55    30    53    1
    56    30    54    1
    57    30    55    1
@<TRIPOS>MOLECULE
01178588C
 55 57 0 0 0
SMALL
GASTEIGER

@<TRIPOS>ATOM
      1 S           2.8536   -1.5209   -1.1531 S.O2    1  LIG1        0.0756
      2 C           1.6858   -2.4552   -2.1056 C.ar    1  LIG1        0.1344
      3 N           3.9393   -1.0862   -2.3815 N.pl3   1  LIG1       -0.1951
      4 O           3.4842   -2.3706   -0.1780 O.2     1  LIG1       -0.1499
      5 O           2.1655   -0.3157   -0.7261 O.2     1  LIG1       -0.1499
      6 C           1.7960   -3.8134   -2.3961 C.ar    1  LIG1        0.0975
      7 C           0.5665   -1.7378   -2.5819 C.ar    1  LIG1       -0.0315
      8 C           4.6069    0.1390   -2.1361 C.ar    1  LIG1        0.2006
      9 C           2.8393   -4.7905   -1.9923 C.ar    1  LIG1        0.0023
     10 N           0.8273   -4.4142   -3.1654 N.ar    1  LIG1       -0.2530
     11 C          -0.4068   -2.3684   -3.3398 C.ar    1  LIG1       -0.0417
     12 C           5.5503    0.3674   -1.1290 C.ar    1  LIG1        0.2574
     13 N           4.1961    1.0970   -2.9975 N.ar    1  LIG1       -0.2325
     14 C           2.4469   -6.0995   -1.6385 C.ar    1  LIG1       -0.0523
     15 C           4.2184   -4.5430   -2.0059 C.ar    1  LIG1       -0.0523
     16 C          -0.2307   -3.7042   -3.6073 C.ar    1  LIG1        0.0284
     17 N           6.1085    1.5914   -0.9437 N.ar    1  LIG1       -0.2137
     18 O           5.9646   -0.6977   -0.3654 O.3     1  LIG1       -0.4773
     19 C           4.7477    2.3146   -2.7855 C.ar    1  LIG1        0.0510
     20 C           3.3716   -7.1003   -1.3148 C.ar    1  LIG1       -0.0579
     21 C           5.1466   -5.5293   -1.6290 C.ar    1  LIG1       -0.0579
     22 C           5.6841    2.5675   -1.7841 C.ar    1  LIG1        0.0602
     23 C           6.8848   -0.3541    0.6607 C.3     1  LIG1        0.0805
     24 C           4.7366   -6.8228   -1.2879 C.ar    1  LIG1       -0.0465
     25 C           6.2362    3.9452   -1.5937 C.3     1  LIG1       -0.0208
     26 C           5.7640   -7.8929   -0.9764 C.3     1  LIG1       -0.0174
     27 C           5.8747   -8.4175    0.4730 C.3     1  LIG1        0.0085
     28 C           6.3419   -7.3108    1.4542 C.2     1  LIG1        0.0477
     29 C           4.6020   -9.1335    0.9406 C.3     1  LIG1       -0.0544
     30 C           7.0384   -9.4307    0.5372 C.3     1  LIG1       -0.0544
     31 O           7.2541   -6.5457    1.0227 O.co2   1  LIG1       -0.5493
     32 O           5.8191   -7.3427    2.6067 O.co2   1  LIG1       -0.5493
     33 H           3.4858   -1.0257   -3.2891 H       1  LIG1        0.1754
     34 H           0.4457   -0.6791   -2.3551 H       1  LIG1        0.0638
     35 H          -1.2745   -1.8322   -3.7043 H       1  LIG1        0.0633
     36 H           1.3902   -6.3619   -1.6295 H       1  LIG1        0.0624
     37 H           4.6235   -3.5810   -2.2967 H       1  LIG1        0.0624
     38 H          -0.9512   -4.2650   -4.1952 H       1  LIG1        0.0830
     39 H           4.4076    3.1004   -3.4523 H       1  LIG1        0.0848
     40 H           3.0070   -8.0961   -1.0832 H       1  LIG1        0.0620
     41 H           6.2064   -5.2769   -1.5965 H       1  LIG1        0.0620
     42 H           7.1356   -1.2685    1.2065 H       1  LIG1        0.0660
     43 H           6.4389    0.3500    1.3713 H       1  LIG1        0.0660
     44 H           7.8139    0.0487    0.2424 H       1  LIG1        0.0660
     45 H           7.0523    3.9404   -0.8644 H       1  LIG1        0.0293
     46 H           5.4524    4.6163   -1.2289 H       1  LIG1        0.0293
     47 H           6.6290    4.3334   -2.5387 H       1  LIG1        0.0293
     48 H           6.7467   -7.5276   -1.3074 H       1  LIG1        0.0322
     49 H           5.5550   -8.7387   -1.6475 H       1  LIG1        0.0322
     50 H           4.2626   -9.8628    0.1960 H       1  LIG1        0.0239
     51 H           3.7861   -8.4302    1.1347 H       1  LIG1        0.0239
     52 H           4.7692   -9.6832    1.8746 H       1  LIG1        0.0239
     53 H           6.8420  -10.2939   -0.1088 H       1  LIG1        0.0239
     54 H           7.1886   -9.8064    1.5566 H       1  LIG1        0.0239
     55 H           7.9871   -8.9869    0.2126 H       1  LIG1        0.0239
@<TRIPOS>BOND
     1     1     5    2
     2     1     4    2
     3     1     3    1
     4     1     2    1
     5     2     6   ar
     6     2     7   ar
     7     3     8    1
     8     6    10   ar
     9     6     9    1
    10     7    11   ar
    11     8    12   ar
    12     8    13   ar
    13     9    14   ar
    14     9    15   ar
    15    10    16   ar
    16    11    16   ar
    17    12    17   ar
    18    12    18    1
    19    13    19   ar
    20    14    20   ar
    21    15    21   ar
    22    17    22   ar
    23    18    23    1
    24    19    22   ar
    25    20    24   ar
    26    21    24   ar
    27    22    25    1
    28    24    26    1
    29    26    27    1
    30    27    30    1
    31    27    29    1
    32    27    28    1
    33    28    32   ar
    34    28    31   ar
    35     3    33    1
    36     7    34    1
    37    11    35    1
    38    14    36    1
    39    15    37    1
    40    16    38    1
    41    19    39    1
    42    20    40    1
    43    21    41    1
    44    23    42    1
    45    23    43    1
    46    23    44    1
    47    25    45    1
    48    25    46    1
    49    25    47    1
    50    26    48    1
    51    26    49    1
    52    29    50    1
    53    29    51    1
    54    29    52    1
    55    30    53    1
    56    30    54    1
    57    30    55    1
@<TRIPOS>MOLECULE
01178588C
 55 57 0 0 0
SMALL
GASTEIGER

@<TRIPOS>ATOM
      1 S           2.7237   -1.6164   -1.0734 S.O2    1  LIG1        0.0756
      2 C           1.6980   -2.4222   -2.2726 C.ar    1  LIG1        0.1344
      3 N           4.1558   -1.3423   -1.9340 N.pl3   1  LIG1       -0.1951
      4 O           3.0131   -2.5552   -0.0160 O.2     1  LIG1       -0.1499
      5 O           2.0893   -0.3503   -0.7580 O.2     1  LIG1       -0.1499
      6 C           1.7328   -3.7921   -2.5273 C.ar    1  LIG1        0.0975
      7 C           0.6882   -1.6460   -2.8708 C.ar    1  LIG1       -0.0315
      8 C           4.6709   -0.0279   -1.7692 C.ar    1  LIG1        0.2006
      9 C           2.7057   -4.7884   -2.0353 C.ar    1  LIG1        0.0023
     10 N           0.7912   -4.3692   -3.3417 N.ar    1  LIG1       -0.2530
     11 C          -0.2601   -2.2413   -3.6917 C.ar    1  LIG1       -0.0417
     12 C           4.1818    1.1237   -2.4001 C.ar    1  LIG1        0.2574
     13 N           5.6962   -0.0028   -0.8970 N.ar    1  LIG1       -0.2325
     14 C           4.0873   -4.6735   -2.2465 C.ar    1  LIG1       -0.0523
     15 C           2.2459   -5.9735   -1.4302 C.ar    1  LIG1       -0.0523
     16 C          -0.1711   -3.6007   -3.8900 C.ar    1  LIG1        0.0284
     17 N           4.7060    2.3527   -2.1471 N.ar    1  LIG1       -0.2137
     18 O           3.1714    0.9988   -3.3356 O.3     1  LIG1       -0.4773
     19 C           6.1988    1.2259   -0.6401 C.ar    1  LIG1        0.0510
     20 C           4.9736   -5.6777   -1.8289 C.ar    1  LIG1       -0.0579
     21 C           3.1239   -6.9961   -1.0525 C.ar    1  LIG1       -0.0579
     22 C           5.7144    2.3872   -1.2381 C.ar    1  LIG1        0.0602
     23 C           2.8747    2.2251   -3.9952 C.3     1  LIG1        0.0805
     24 C           4.5004   -6.8580   -1.2451 C.ar    1  LIG1       -0.0465
     25 C           6.2986    3.7194   -0.8856 C.3     1  LIG1       -0.0208
     26 C           5.4578   -7.9816   -0.9006 C.3     1  LIG1       -0.0174
     27 C           5.9071   -8.1185    0.5697 C.3     1  LIG1        0.0085
     28 C           6.8246   -6.9494    1.0166 C.2     1  LIG1        0.0477
     29 C           4.7227   -8.3418    1.5179 C.3     1  LIG1       -0.0544
     30 C           6.8493   -9.3365    0.6815 C.3     1  LIG1       -0.0544
     31 O           6.7479   -6.6276    2.2380 O.co2   1  LIG1       -0.5493
     32 O           7.6007   -6.4901    0.1289 O.co2   1  LIG1       -0.5493
     33 H           4.8544   -1.9714   -1.5242 H       1  LIG1        0.1754
     34 H           0.6204   -0.5774   -2.6764 H       1  LIG1        0.0638
     35 H          -1.0564   -1.6620   -4.1439 H       1  LIG1        0.0633
     36 H           4.5017   -3.8220   -2.7749 H       1  LIG1        0.0624
     37 H           1.1789   -6.1215   -1.2770 H       1  LIG1        0.0624
     38 H          -0.8902   -4.1317   -4.5063 H       1  LIG1        0.0830
     39 H           7.0118    1.2512    0.0792 H       1  LIG1        0.0848
     40 H           6.0460   -5.5484   -1.9768 H       1  LIG1        0.0620
     41 H           2.7228   -7.9062   -0.6151 H       1  LIG1        0.0620
     42 H           2.0867    2.0292   -4.7290 H       1  LIG1        0.0660
     43 H           3.7464    2.6039   -4.5415 H       1  LIG1        0.0660
     44 H           2.4947    2.9766   -3.2938 H       1  LIG1        0.0660
     45 H           5.7759    4.5261   -1.4095 H       1  LIG1        0.0293
     46 H           7.3556    3.7569   -1.1664 H       1  LIG1        0.0293
     47 H           6.2067    3.8999    0.1903 H       1  LIG1        0.0293
     48 H           6.3355   -7.8966   -1.5571 H       1  LIG1        0.0322
     49 H           4.9820   -8.9211   -1.2185 H       1  LIG1        0.0322
     50 H           4.0781   -9.1533    1.1607 H       1  LIG1        0.0239
     51 H           4.1135   -7.4382    1.6227 H       1  LIG1        0.0239
     52 H           5.0565   -8.6179    2.5251 H       1  LIG1        0.0239
     53 H           6.3311  -10.2610    0.4013 H       1  LIG1        0.0239
     54 H           7.2233   -9.4656    1.7045 H       1  LIG1        0.0239
     55 H           7.7227   -9.2377    0.0259 H       1  LIG1        0.0239
@<TRIPOS>BOND
     1     1     5    2
     2     1     4    2
     3     1     3    1
     4     1     2    1
     5     2     6   ar
     6     2     7   ar
     7     3     8    1
     8     6    10   ar
     9     6     9    1
    10     7    11   ar
    11     8    12   ar
    12     8    13   ar
    13     9    14   ar
    14     9    15   ar
    15    10    16   ar
    16    11    16   ar
    17    12    17   ar
    18    12    18    1
    19    13    19   ar
    20    14    20   ar
    21    15    21   ar
    22    17    22   ar
    23    18    23    1
    24    19    22   ar
    25    20    24   ar
    26    21    24   ar
    27    22    25    1
    28    24    26    1
    29    26    27    1
    30    27    30    1
    31    27    29    1
    32    27    28    1
    33    28    32   ar
    34    28    31   ar
    35     3    33    1
    36     7    34    1
    37    11    35    1
    38    14    36    1
    39    15    37    1
    40    16    38    1
    41    19    39    1
    42    20    40    1
    43    21    41    1
    44    23    42    1
    45    23    43    1
    46    23    44    1
    47    25    45    1
    48    25    46    1
    49    25    47    1
    50    26    48    1
    51    26    49    1
    52    29    50    1
    53    29    51    1
    54    29    52    1
    55    30    53    1
    56    30    54    1
    57    30    55    1
@<TRIPOS>MOLECULE
01178588C
 55 57 0 0 0
SMALL
GASTEIGER

@<TRIPOS>ATOM
      1 S           2.9237   -1.6825   -1.1754 S.O2    1  LIG1        0.0756
      2 C           1.6899   -2.4493   -2.1813 C.ar    1  LIG1        0.1344
      3 N           2.4404   -0.0452   -1.1073 N.pl3   1  LIG1       -0.1951
      4 O           4.1483   -1.6281   -1.9453 O.2     1  LIG1       -0.1499
      5 O           2.8391   -2.2647    0.1435 O.2     1  LIG1       -0.1499
      6 C           1.7284   -3.8163   -2.4616 C.ar    1  LIG1        0.0975
      7 C           0.6092   -1.6860   -2.6547 C.ar    1  LIG1       -0.0315
      8 C           2.7749    0.5514    0.1385 C.ar    1  LIG1        0.2006
      9 C           2.7523   -4.7977   -2.0398 C.ar    1  LIG1        0.0023
     10 N           0.7278   -4.4019   -3.1911 N.ar    1  LIG1       -0.2530
     11 C          -0.3945   -2.2916   -3.4006 C.ar    1  LIG1       -0.0417
     12 C           2.0119    0.4268    1.3049 C.ar    1  LIG1        0.2574
     13 N           3.9521    1.2060    0.0911 N.ar    1  LIG1       -0.2325
     14 C           4.1181   -4.6387   -2.3085 C.ar    1  LIG1       -0.0523
     15 C           2.3602   -6.0032   -1.4258 C.ar    1  LIG1       -0.0523
     16 C          -0.2921   -3.6443   -3.6411 C.ar    1  LIG1        0.0284
     17 N           2.4162    0.9701    2.4807 N.ar    1  LIG1       -0.2137
     18 O           0.7784   -0.1892    1.2210 O.3     1  LIG1       -0.4773
     19 C           4.3648    1.7044    1.2797 C.ar    1  LIG1        0.0510
     20 C           5.0565   -5.6063   -1.9287 C.ar    1  LIG1       -0.0579
     21 C           3.2910   -6.9934   -1.0832 C.ar    1  LIG1       -0.0579
     22 C           3.6219    1.5933    2.4555 C.ar    1  LIG1        0.0602
     23 C           0.2270   -0.4879    2.4976 C.3     1  LIG1        0.0805
     24 C           4.6524   -6.8020   -1.3302 C.ar    1  LIG1       -0.0465
     25 C           4.1534    2.1450    3.7409 C.3     1  LIG1       -0.0208
     26 C           5.6674   -7.8713   -0.9720 C.3     1  LIG1       -0.0174
     27 C           6.1624   -8.7567   -2.1401 C.3     1  LIG1        0.0085
     28 C           7.1389   -9.7280   -1.4158 C.2     1  LIG1        0.0477
     29 C           5.0222   -9.5321   -2.8092 C.3     1  LIG1       -0.0544
     30 C           6.9395   -7.9755   -3.2069 C.3     1  LIG1       -0.0544
     31 O           6.6451  -10.8307   -1.0407 O.co2   1  LIG1       -0.5493
     32 O           8.3179   -9.3016   -1.2497 O.co2   1  LIG1       -0.5493
     33 H           3.0369    0.4258   -1.7923 H       1  LIG1        0.1754
     34 H           0.5216   -0.6252   -2.4406 H       1  LIG1        0.0638
     35 H          -1.2391   -1.7240   -3.7742 H       1  LIG1        0.0633
     36 H           4.4884   -3.7740   -2.8507 H       1  LIG1        0.0624
     37 H           1.3058   -6.1943   -1.2356 H       1  LIG1        0.0624
     38 H          -1.0463   -4.1776   -4.2119 H       1  LIG1        0.0830
     39 H           5.3316    2.1984    1.2655 H       1  LIG1        0.0848
     40 H           6.1108   -5.4311   -2.1310 H       1  LIG1        0.0620
     41 H           2.9448   -7.9221   -0.6349 H       1  LIG1        0.0620
     42 H          -0.7047   -1.0388    2.3369 H       1  LIG1        0.0660
     43 H          -0.0213    0.4277    3.0459 H       1  LIG1        0.0660
     44 H           0.8974   -1.1273    3.0823 H       1  LIG1        0.0660
     45 H           3.4096    2.0572    4.5390 H       1  LIG1        0.0293
     46 H           4.4056    3.2038    3.6262 H       1  LIG1        0.0293
     47 H           5.0487    1.5935    4.0442 H       1  LIG1        0.0293
     48 H           5.2319   -8.5053   -0.1855 H       1  LIG1        0.0322
     49 H           6.5160   -7.3710   -0.4836 H       1  LIG1        0.0322
     50 H           4.3649   -8.8672   -3.3802 H       1  LIG1        0.0239
     51 H           4.4014  -10.0595   -2.0763 H       1  LIG1        0.0239
     52 H           5.4155  -10.2816   -3.5063 H       1  LIG1        0.0239
     53 H           6.2717   -7.3723   -3.8313 H       1  LIG1        0.0239
     54 H           7.4807   -8.6548   -3.8759 H       1  LIG1        0.0239
     55 H           7.6780   -7.2991   -2.7616 H       1  LIG1        0.0239
@<TRIPOS>BOND
     1     1     5    2
     2     1     4    2
     3     1     3    1
     4     1     2    1
     5     2     6   ar
     6     2     7   ar
     7     3     8    1
     8     6    10   ar
     9     6     9    1
    10     7    11   ar
    11     8    12   ar
    12     8    13   ar
    13     9    14   ar
    14     9    15   ar
    15    10    16   ar
    16    11    16   ar
    17    12    17   ar
    18    12    18    1
    19    13    19   ar
    20    14    20   ar
    21    15    21   ar
    22    17    22   ar
    23    18    23    1
    24    19    22   ar
    25    20    24   ar
    26    21    24   ar
    27    22    25    1
    28    24    26    1
    29    26    27    1
    30    27    30    1
    31    27    29    1
    32    27    28    1
    33    28    32   ar
    34    28    31   ar
    35     3    33    1
    36     7    34    1
    37    11    35    1
    38    14    36    1
    39    15    37    1
    40    16    38    1
    41    19    39    1
    42    20    40    1
    43    21    41    1
    44    23    42    1
    45    23    43    1
    46    23    44    1
    47    25    45    1
    48    25    46    1
    49    25    47    1
    50    26    48    1
    51    26    49    1
    52    29    50    1
    53    29    51    1
    54    29    52    1
    55    30    53    1
    56    30    54    1
    57    30    55    1
@<TRIPOS>MOLECULE
01178588C
 55 57 0 0 0
SMALL
GASTEIGER

@<TRIPOS>ATOM
      1 S           2.9583   -1.5697   -1.2117 S.O2    1  LIG1        0.0756
      2 C           1.7400   -2.4516   -2.1424 C.ar    1  LIG1        0.1344
      3 N           3.9950   -1.0731   -2.4651 N.pl3   1  LIG1       -0.1951
      4 O           3.6387   -2.4542   -0.2999 O.2     1  LIG1       -0.1499
      5 O           2.3124   -0.3712   -0.7098 O.2     1  LIG1       -0.1499
      6 C           1.7917   -3.8157   -2.4050 C.ar    1  LIG1        0.0975
      7 C           0.6330   -1.7096   -2.6002 C.ar    1  LIG1       -0.0315
      8 C           5.0857   -0.3004   -1.9807 C.ar    1  LIG1        0.2006
      9 C           2.8285   -4.7718   -1.9870 C.ar    1  LIG1        0.0023
     10 N           0.7930   -4.4203   -3.1217 N.ar    1  LIG1       -0.2530
     11 C          -0.3763   -2.3357   -3.3199 C.ar    1  LIG1       -0.0417
     12 C           6.2178   -0.7985   -1.3274 C.ar    1  LIG1        0.2574
     13 N           4.8894    1.0151   -2.2177 N.ar    1  LIG1       -0.2325
     14 C           2.4789   -5.8706   -1.1845 C.ar    1  LIG1       -0.0523
     15 C           4.1615   -4.6761   -2.4060 C.ar    1  LIG1       -0.0523
     16 C          -0.2508   -3.6853   -3.5551 C.ar    1  LIG1        0.0284
     17 N           7.1955    0.0287   -0.8750 N.ar    1  LIG1       -0.2137
     18 O           6.3983   -2.1614   -1.2589 O.3     1  LIG1       -0.4773
     19 C           5.8602    1.8265   -1.7378 C.ar    1  LIG1        0.0510
     20 C           3.4259   -6.8215   -0.7864 C.ar    1  LIG1       -0.0579
     21 C           5.1105   -5.6295   -2.0086 C.ar    1  LIG1       -0.0579
     22 C           6.9907    1.3544   -1.0748 C.ar    1  LIG1        0.0602
     23 C           7.4217   -2.5497   -0.3511 C.3     1  LIG1        0.0805
     24 C           4.7545   -6.7235   -1.2038 C.ar    1  LIG1       -0.0465
     25 C           8.0241    2.3104   -0.5668 C.3     1  LIG1       -0.0208
     26 C           5.8304   -7.6935   -0.7446 C.3     1  LIG1       -0.0174
     27 C           5.5010   -9.2019   -0.6202 C.3     1  LIG1        0.0085
     28 C           4.7089   -9.5105    0.6782 C.2     1  LIG1        0.0477
     29 C           4.8427   -9.7560   -1.8897 C.3     1  LIG1       -0.0544
     30 C           6.8181   -9.9757   -0.3890 C.3     1  LIG1       -0.0544
     31 O           5.1633   -8.9915    1.7384 O.co2   1  LIG1       -0.5493
     32 O           3.6994  -10.2599    0.5438 O.co2   1  LIG1       -0.5493
     33 H           3.4738   -0.4405   -3.0705 H       1  LIG1        0.1754
     34 H           0.5475   -0.6471   -2.3868 H       1  LIG1        0.0638
     35 H          -1.2389   -1.7832   -3.6747 H       1  LIG1        0.0633
     36 H           1.4491   -6.0011   -0.8561 H       1  LIG1        0.0624
     37 H           4.4866   -3.8572   -3.0411 H       1  LIG1        0.0624
     38 H          -1.0057   -4.2369   -4.1082 H       1  LIG1        0.0830
     39 H           5.7015    2.8875   -1.9020 H       1  LIG1        0.0848
     40 H           3.1005   -7.6372   -0.1431 H       1  LIG1        0.0620
     41 H           6.1431   -5.5048   -2.3262 H       1  LIG1        0.0620
     42 H           7.4067   -3.6409   -0.2731 H       1  LIG1        0.0660
     43 H           7.2490   -2.1398    0.6505 H       1  LIG1        0.0660
     44 H           8.4086   -2.2575   -0.7265 H       1  LIG1        0.0660
     45 H           8.8496    1.7751   -0.0880 H       1  LIG1        0.0293
     46 H           7.5815    2.9869    0.1711 H       1  LIG1        0.0293
     47 H           8.4330    2.8993   -1.3936 H       1  LIG1        0.0293
     48 H           6.2191   -7.3042    0.2056 H       1  LIG1        0.0322
     49 H           6.6639   -7.6070   -1.4571 H       1  LIG1        0.0322
     50 H           5.4398   -9.5233   -2.7784 H       1  LIG1        0.0239
     51 H           3.8373   -9.3518   -2.0429 H       1  LIG1        0.0239
     52 H           4.7403  -10.8470   -1.8409 H       1  LIG1        0.0239
     53 H           7.4656   -9.9206   -1.2718 H       1  LIG1        0.0239
     54 H           6.6309  -11.0365   -0.1824 H       1  LIG1        0.0239
     55 H           7.3874   -9.5721    0.4568 H       1  LIG1        0.0239
@<TRIPOS>BOND
     1     1     5    2
     2     1     4    2
     3     1     3    1
     4     1     2    1
     5     2     6   ar
     6     2     7   ar
     7     3     8    1
     8     6    10   ar
     9     6     9    1
    10     7    11   ar
    11     8    12   ar
    12     8    13   ar
    13     9    14   ar
    14     9    15   ar
    15    10    16   ar
    16    11    16   ar
    17    12    17   ar
    18    12    18    1
    19    13    19   ar
    20    14    20   ar
    21    15    21   ar
    22    17    22   ar
    23    18    23    1
    24    19    22   ar
    25    20    24   ar
    26    21    24   ar
    27    22    25    1
    28    24    26    1
    29    26    27    1
    30    27    30    1
    31    27    29    1
    32    27    28    1
    33    28    32   ar
    34    28    31   ar
    35     3    33    1
    36     7    34    1
    37    11    35    1
    38    14    36    1
    39    15    37    1
    40    16    38    1
    41    19    39    1
    42    20    40    1
    43    21    41    1
    44    23    42    1
    45    23    43    1
    46    23    44    1
    47    25    45    1
    48    25    46    1
    49    25    47    1
    50    26    48    1
    51    26    49    1
    52    29    50    1
    53    29    51    1
    54    29    52    1
    55    30    53    1
    56    30    54    1
    57    30    55    1
@<TRIPOS>MOLECULE
01178588C
 55 57 0 0 0
SMALL
GASTEIGER

@<TRIPOS>ATOM
      1 S           2.6613   -1.6110   -1.0755 S.O2    1  LIG1        0.0756
      2 C           1.5789   -2.4492   -2.1965 C.ar    1  LIG1        0.1344
      3 N           4.0053   -1.2287   -2.0254 N.pl3   1  LIG1       -0.1951
      4 O           3.0945   -2.5576   -0.0697 O.2     1  LIG1       -0.1499
      5 O           1.9872   -0.3925   -0.6652 O.2     1  LIG1       -0.1499
      6 C           1.7011   -3.8007   -2.5032 C.ar    1  LIG1        0.0975
      7 C           0.4570   -1.7458   -2.6677 C.ar    1  LIG1       -0.0315
      8 C           4.1470    0.1584   -2.2844 C.ar    1  LIG1        0.2006
      9 C           2.8053   -4.6963   -2.1233 C.ar    1  LIG1        0.0023
     10 N           0.7444   -4.4400   -3.2460 N.ar    1  LIG1       -0.2530
     11 C          -0.5012   -2.3947   -3.4351 C.ar    1  LIG1       -0.0417
     12 C           3.4055    0.8664   -3.2393 C.ar    1  LIG1        0.2574
     13 N           4.9903    0.7635   -1.4240 N.ar    1  LIG1       -0.2325
     14 C           2.5552   -5.8332   -1.3394 C.ar    1  LIG1       -0.0523
     15 C           4.1080   -4.5133   -2.6046 C.ar    1  LIG1       -0.0523
     16 C          -0.3168   -3.7363   -3.6907 C.ar    1  LIG1        0.0284
     17 N           3.4674    2.2193   -3.3418 N.ar    1  LIG1       -0.2137
     18 O           2.5845    0.1648   -4.0989 O.3     1  LIG1       -0.4773
     19 C           5.0370    2.1128   -1.5282 C.ar    1  LIG1        0.0510
     20 C           3.5766   -6.7376   -1.0268 C.ar    1  LIG1       -0.0579
     21 C           5.1320   -5.4186   -2.2904 C.ar    1  LIG1       -0.0579
     22 C           4.2868    2.8367   -2.4540 C.ar    1  LIG1        0.0602
     23 C           2.2091    0.9240   -5.2423 C.3     1  LIG1        0.0805
     24 C           4.8865   -6.5365   -1.4861 C.ar    1  LIG1       -0.0465
     25 C           4.3466    4.3313   -2.4785 C.3     1  LIG1       -0.0208
     26 C           5.9370   -7.5964   -1.1956 C.3     1  LIG1       -0.0174
     27 C           7.4059   -7.1794   -0.9445 C.3     1  LIG1        0.0085
     28 C           8.1195   -6.8182   -2.2735 C.2     1  LIG1        0.0477
     29 C           7.5164   -6.0959    0.1345 C.3     1  LIG1       -0.0544
     30 C           8.1945   -8.4168   -0.4610 C.3     1  LIG1       -0.0544
     31 O           7.9984   -7.6574   -3.2118 O.co2   1  LIG1       -0.5493
     32 O           8.7465   -5.7201   -2.2820 O.co2   1  LIG1       -0.5493
     33 H           4.8410   -1.6078   -1.5753 H       1  LIG1        0.1754
     34 H           0.3205   -0.6930   -2.4297 H       1  LIG1        0.0638
     35 H          -1.3731   -1.8699   -3.8068 H       1  LIG1        0.0633
     36 H           1.5463   -6.0363   -0.9869 H       1  LIG1        0.0624
     37 H           4.3441   -3.6863   -3.2693 H       1  LIG1        0.0624
     38 H          -1.0361   -4.3050   -4.2727 H       1  LIG1        0.0830
     39 H           5.6957    2.6078   -0.8211 H       1  LIG1        0.0848
     40 H           3.3362   -7.6199   -0.4387 H       1  LIG1        0.0620
     41 H           6.1208   -5.2445   -2.7107 H       1  LIG1        0.0620
     42 H           1.6621    0.2608   -5.9196 H       1  LIG1        0.0660
     43 H           3.0880    1.2958   -5.7825 H       1  LIG1        0.0660
     44 H           1.5398    1.7474   -4.9704 H       1  LIG1        0.0660
     45 H           3.6937    4.7349   -3.2592 H       1  LIG1        0.0293
     46 H           5.3679    4.6693   -2.6783 H       1  LIG1        0.0293
     47 H           4.0150    4.7376   -1.5176 H       1  LIG1        0.0293
     48 H           5.8797   -8.3272   -2.0134 H       1  LIG1        0.0322
     49 H           5.6037   -8.1389   -0.2983 H       1  LIG1        0.0322
     50 H           7.0135   -6.4056    1.0577 H       1  LIG1        0.0239
     51 H           7.0756   -5.1474   -0.1872 H       1  LIG1        0.0239
     52 H           8.5641   -5.8908    0.3851 H       1  LIG1        0.0239
     53 H           7.8425   -8.7473    0.5233 H       1  LIG1        0.0239
     54 H           9.2662   -8.2010   -0.3734 H       1  LIG1        0.0239
     55 H           8.0858   -9.2668   -1.1453 H       1  LIG1        0.0239
@<TRIPOS>BOND
     1     1     5    2
     2     1     4    2
     3     1     3    1
     4     1     2    1
     5     2     6   ar
     6     2     7   ar
     7     3     8    1
     8     6    10   ar
     9     6     9    1
    10     7    11   ar
    11     8    12   ar
    12     8    13   ar
    13     9    14   ar
    14     9    15   ar
    15    10    16   ar
    16    11    16   ar
    17    12    17   ar
    18    12    18    1
    19    13    19   ar
    20    14    20   ar
    21    15    21   ar
    22    17    22   ar
    23    18    23    1
    24    19    22   ar
    25    20    24   ar
    26    21    24   ar
    27    22    25    1
    28    24    26    1
    29    26    27    1
    30    27    30    1
    31    27    29    1
    32    27    28    1
    33    28    32   ar
    34    28    31   ar
    35     3    33    1
    36     7    34    1
    37    11    35    1
    38    14    36    1
    39    15    37    1
    40    16    38    1
    41    19    39    1
    42    20    40    1
    43    21    41    1
    44    23    42    1
    45    23    43    1
    46    23    44    1
    47    25    45    1
    48    25    46    1
    49    25    47    1
    50    26    48    1
    51    26    49    1
    52    29    50    1
    53    29    51    1
    54    29    52    1
    55    30    53    1
    56    30    54    1
    57    30    55    1
@<TRIPOS>MOLECULE
01178588C
 55 57 0 0 0
SMALL
GASTEIGER

@<TRIPOS>ATOM
      1 S           2.6649   -1.6699   -1.1012 S.O2    1  LIG1        0.0756
      2 C           1.5202   -2.5474   -2.1194 C.ar    1  LIG1        0.1344
      3 N           3.9175   -1.2151   -2.1442 N.pl3   1  LIG1       -0.1951
      4 O           3.2286   -2.5822   -0.1350 O.2     1  LIG1       -0.1499
      5 O           1.9904   -0.4726   -0.6308 O.2     1  LIG1       -0.1499
      6 C           1.6566   -3.8912   -2.4504 C.ar    1  LIG1        0.0975
      7 C           0.3578   -1.8642   -2.5220 C.ar    1  LIG1       -0.0315
      8 C           3.6967   -0.0020   -2.8437 C.ar    1  LIG1        0.2006
      9 C           2.7500   -4.7973   -2.0672 C.ar    1  LIG1        0.0023
     10 N           0.6949   -4.5281   -3.1884 N.ar    1  LIG1       -0.2530
     11 C          -0.6105   -2.5151   -3.2738 C.ar    1  LIG1       -0.0417
     12 C           2.9179    0.1062   -4.0034 C.ar    1  LIG1        0.2574
     13 N           4.2019    1.0734   -2.2068 N.ar    1  LIG1       -0.2325
     14 C           2.4676   -5.9322   -1.2850 C.ar    1  LIG1       -0.0523
     15 C           4.0672   -4.6253   -2.5164 C.ar    1  LIG1       -0.0523
     16 C          -0.3956   -3.8400   -3.5833 C.ar    1  LIG1        0.0284
     17 N           2.5795    1.3078   -4.5349 N.ar    1  LIG1       -0.2137
     18 O           2.5138   -1.0516   -4.6338 O.3     1  LIG1       -0.4773
     19 C           3.8505    2.2686   -2.7401 C.ar    1  LIG1        0.0510
     20 C           3.4640   -6.8522   -0.9471 C.ar    1  LIG1       -0.0579
     21 C           5.0687   -5.5436   -2.1729 C.ar    1  LIG1       -0.0579
     22 C           3.0456    2.3949   -3.8714 C.ar    1  LIG1        0.0602
     23 C           1.8113   -0.8230   -5.8495 C.3     1  LIG1        0.0805
     24 C           4.7760   -6.6681   -1.3899 C.ar    1  LIG1       -0.0465
     25 C           2.6468    3.7459   -4.3778 C.3     1  LIG1       -0.0208
     26 C           5.8581   -7.6704   -1.0341 C.3     1  LIG1       -0.0174
     27 C           6.0247   -8.8622   -2.0048 C.3     1  LIG1        0.0085
     28 C           7.2515   -9.6039   -1.3997 C.2     1  LIG1        0.0477
     29 C           4.7992   -9.7835   -2.0261 C.3     1  LIG1       -0.0544
     30 C           6.3554   -8.4228   -3.4356 C.3     1  LIG1       -0.0544
     31 O           8.3861   -9.1541   -1.7342 O.co2   1  LIG1       -0.5493
     32 O           6.9890  -10.5588   -0.6131 O.co2   1  LIG1       -0.5493
     33 H           4.7936   -1.2167   -1.6240 H       1  LIG1        0.1754
     34 H           0.2044   -0.8203   -2.2557 H       1  LIG1        0.0638
     35 H          -1.5073   -2.0027   -3.6009 H       1  LIG1        0.0633
     36 H           1.4500   -6.1156   -0.9463 H       1  LIG1        0.0624
     37 H           4.3277   -3.7896   -3.1597 H       1  LIG1        0.0624
     38 H          -1.1139   -4.4089   -4.1660 H       1  LIG1        0.0830
     39 H           4.2255    3.1392   -2.2115 H       1  LIG1        0.0848
     40 H           3.2093   -7.7228   -0.3470 H       1  LIG1        0.0620
     41 H           6.0843   -5.3912   -2.5330 H       1  LIG1        0.0620
     42 H           1.5610   -1.7982   -6.2783 H       1  LIG1        0.0660
     43 H           2.4344   -0.2901   -6.5762 H       1  LIG1        0.0660
     44 H           0.8725   -0.2878   -5.6696 H       1  LIG1        0.0660
     45 H           2.0398    3.6583   -5.2851 H       1  LIG1        0.0293
     46 H           3.5326    4.3418   -4.6168 H       1  LIG1        0.0293
     47 H           2.0526    4.2712   -3.6231 H       1  LIG1        0.0293
     48 H           5.6549   -8.0417   -0.0186 H       1  LIG1        0.0322
     49 H           6.8044   -7.1186   -0.9383 H       1  LIG1        0.0322
     50 H           3.9490   -9.3128   -2.5309 H       1  LIG1        0.0239
     51 H           4.4748  -10.0545   -1.0149 H       1  LIG1        0.0239
     52 H           5.0191  -10.7160   -2.5597 H       1  LIG1        0.0239
     53 H           5.4827   -7.9857   -3.9330 H       1  LIG1        0.0239
     54 H           6.6840   -9.2757   -4.0410 H       1  LIG1        0.0239
     55 H           7.1571   -7.6762   -3.4598 H       1  LIG1        0.0239
@<TRIPOS>BOND
     1     1     5    2
     2     1     4    2
     3     1     3    1
     4     1     2    1
     5     2     6   ar
     6     2     7   ar
     7     3     8    1
     8     6    10   ar
     9     6     9    1
    10     7    11   ar
    11     8    12   ar
    12     8    13   ar
    13     9    14   ar
    14     9    15   ar
    15    10    16   ar
    16    11    16   ar
    17    12    17   ar
    18    12    18    1
    19    13    19   ar
    20    14    20   ar
    21    15    21   ar
    22    17    22   ar
    23    18    23    1
    24    19    22   ar
    25    20    24   ar
    26    21    24   ar
    27    22    25    1
    28    24    26    1
    29    26    27    1
    30    27    30    1
    31    27    29    1
    32    27    28    1
    33    28    32   ar
    34    28    31   ar
    35     3    33    1
    36     7    34    1
    37    11    35    1
    38    14    36    1
    39    15    37    1
    40    16    38    1
    41    19    39    1
    42    20    40    1
    43    21    41    1
    44    23    42    1
    45    23    43    1
    46    23    44    1
    47    25    45    1
    48    25    46    1
    49    25    47    1
    50    26    48    1
    51    26    49    1
    52    29    50    1
    53    29    51    1
    54    29    52    1
    55    30    53    1
    56    30    54    1
    57    30    55    1
@<TRIPOS>MOLECULE
01178588C
 55 57 0 0 0
SMALL
GASTEIGER

@<TRIPOS>ATOM
      1 S           2.6703   -1.5958   -1.1102 S.O2    1  LIG1        0.0756
      2 C           1.5709   -2.5079   -2.1509 C.ar    1  LIG1        0.1344
      3 N           3.9344   -1.1149   -2.1326 N.pl3   1  LIG1       -0.1951
      4 O           3.2312   -2.4883   -0.1254 O.2     1  LIG1       -0.1499
      5 O           1.9617   -0.4089   -0.6662 O.2     1  LIG1       -0.1499
      6 C           1.7263   -3.8486   -2.4961 C.ar    1  LIG1        0.0975
      7 C           0.4028   -1.8305   -2.5624 C.ar    1  LIG1       -0.0315
      8 C           3.6947    0.0863   -2.8466 C.ar    1  LIG1        0.2006
      9 C           2.7859   -4.8027   -2.0896 C.ar    1  LIG1        0.0023
     10 N           0.7772   -4.4635   -3.2791 N.ar    1  LIG1       -0.2530
     11 C          -0.5532   -2.4712   -3.3355 C.ar    1  LIG1       -0.0417
     12 C           2.9213    0.1719   -4.0124 C.ar    1  LIG1        0.2574
     13 N           4.1692    1.1769   -2.2125 N.ar    1  LIG1       -0.2325
     14 C           2.4131   -6.1009   -1.6836 C.ar    1  LIG1       -0.0523
     15 C           4.1599   -4.5386   -2.1433 C.ar    1  LIG1       -0.0523
     16 C          -0.3177   -3.7821   -3.6726 C.ar    1  LIG1        0.0284
     17 N           2.5514    1.3633   -4.5467 N.ar    1  LIG1       -0.2137
     18 O           2.5573   -0.9958   -4.6496 O.3     1  LIG1       -0.4773
     19 C           3.7855    2.3607   -2.7465 C.ar    1  LIG1        0.0510
     20 C           3.3544   -7.0768   -1.3362 C.ar    1  LIG1       -0.0579
     21 C           5.1057   -5.4992   -1.7419 C.ar    1  LIG1       -0.0579
     22 C           2.9792    2.4631   -3.8788 C.ar    1  LIG1        0.0602
     23 C           1.8264   -0.7859   -5.8519 C.3     1  LIG1        0.0805
     24 C           4.7161   -6.7819   -1.3346 C.ar    1  LIG1       -0.0465
     25 C           2.5324    3.8015   -4.3773 C.3     1  LIG1       -0.0208
     26 C           5.7608   -7.8272   -0.9919 C.3     1  LIG1       -0.0174
     27 C           5.8353   -8.3743    0.4539 C.3     1  LIG1        0.0085
     28 C           6.2051   -7.2674    1.4752 C.2     1  LIG1        0.0477
     29 C           4.5830   -9.1593    0.8608 C.3     1  LIG1       -0.0544
     30 C           7.0426   -9.3335    0.5491 C.3     1  LIG1       -0.0544
     31 O           7.0892   -6.4452    1.0901 O.co2   1  LIG1       -0.5493
     32 O           5.6444   -7.3496    2.6052 O.co2   1  LIG1       -0.5493
     33 H           4.7941   -1.0831   -1.5851 H       1  LIG1        0.1754
     34 H           0.2326   -0.7931   -2.2798 H       1  LIG1        0.0638
     35 H          -1.4527   -1.9602   -3.6565 H       1  LIG1        0.0633
     36 H           1.3596   -6.3729   -1.6493 H       1  LIG1        0.0624
     37 H           4.5354   -3.5860   -2.4971 H       1  LIG1        0.0624
     38 H          -1.0227   -4.3480   -4.2734 H       1  LIG1        0.0830
     39 H           4.1331    3.2415   -2.2160 H       1  LIG1        0.0848
     40 H           3.0023   -8.0675   -1.0680 H       1  LIG1        0.0620
     41 H           6.1632   -5.2382   -1.7459 H       1  LIG1        0.0620
     42 H           1.6025   -1.7668   -6.2823 H       1  LIG1        0.0660
     43 H           2.4177   -0.2280   -6.5863 H       1  LIG1        0.0660
     44 H           0.8726   -0.2844   -5.6537 H       1  LIG1        0.0660
     45 H           1.9240    3.6969   -5.2817 H       1  LIG1        0.0293
     46 H           3.3958    4.4291   -4.6169 H       1  LIG1        0.0293
     47 H           1.9237    4.3015   -3.6170 H       1  LIG1        0.0293
     48 H           6.7454   -7.4283   -1.2756 H       1  LIG1        0.0322
     49 H           5.6043   -8.6682   -1.6831 H       1  LIG1        0.0322
     50 H           4.2938   -9.8746    0.0825 H       1  LIG1        0.0239
     51 H           3.7339   -8.4986    1.0606 H       1  LIG1        0.0239
     52 H           4.7501   -9.7350    1.7793 H       1  LIG1        0.0239
     53 H           6.9126  -10.1937   -0.1175 H       1  LIG1        0.0239
     54 H           7.1702   -9.7200    1.5678 H       1  LIG1        0.0239
     55 H           7.9819   -8.8412    0.2704 H       1  LIG1        0.0239
@<TRIPOS>BOND
     1     1     5    2
     2     1     4    2
     3     1     3    1
     4     1     2    1
     5     2     6   ar
     6     2     7   ar
     7     3     8    1
     8     6    10   ar
     9     6     9    1
    10     7    11   ar
    11     8    12   ar
    12     8    13   ar
    13     9    14   ar
    14     9    15   ar
    15    10    16   ar
    16    11    16   ar
    17    12    17   ar
    18    12    18    1
    19    13    19   ar
    20    14    20   ar
    21    15    21   ar
    22    17    22   ar
    23    18    23    1
    24    19    22   ar
    25    20    24   ar
    26    21    24   ar
    27    22    25    1
    28    24    26    1
    29    26    27    1
    30    27    30    1
    31    27    29    1
    32    27    28    1
    33    28    32   ar
    34    28    31   ar
    35     3    33    1
    36     7    34    1
    37    11    35    1
    38    14    36    1
    39    15    37    1
    40    16    38    1
    41    19    39    1
    42    20    40    1
    43    21    41    1
    44    23    42    1
    45    23    43    1
    46    23    44    1
    47    25    45    1
    48    25    46    1
    49    25    47    1
    50    26    48    1
    51    26    49    1
    52    29    50    1
    53    29    51    1
    54    29    52    1
    55    30    53    1
    56    30    54    1
    57    30    55    1
@<TRIPOS>MOLECULE
01178588C
 55 57 0 0 0
SMALL
GASTEIGER

@<TRIPOS>ATOM
      1 S           2.9940   -1.4764   -1.3145 S.O2    1  LIG1        0.0756
      2 C           1.7034   -2.4524   -2.0409 C.ar    1  LIG1        0.1344
      3 N           4.3980   -1.9462   -2.1267 N.pl3   1  LIG1       -0.1951
      4 O           3.0418   -1.7918    0.0940 O.2     1  LIG1       -0.1499
      5 O           2.7546   -0.1058   -1.7243 O.2     1  LIG1       -0.1499
      6 C           1.7157   -3.8363   -2.2346 C.ar    1  LIG1        0.0975
      7 C           0.5835   -1.7079   -2.4845 C.ar    1  LIG1       -0.0315
      8 C           5.5420   -1.2225   -1.6767 C.ar    1  LIG1        0.2006
      9 C           2.7405   -4.8747   -1.8892 C.ar    1  LIG1        0.0023
     10 N           0.6389   -4.4166   -2.8671 N.ar    1  LIG1       -0.2530
     11 C          -0.4851   -2.3235   -3.1162 C.ar    1  LIG1       -0.0417
     12 C           6.2186   -1.4281   -0.4678 C.ar    1  LIG1        0.2574
     13 N           5.8791   -0.2451   -2.5465 N.ar    1  LIG1       -0.2325
     14 C           3.7090   -4.7670   -0.8871 C.ar    1  LIG1       -0.0523
     15 C           2.7269   -6.1207   -2.5673 C.ar    1  LIG1       -0.0523
     16 C          -0.4098   -3.6806   -3.2862 C.ar    1  LIG1        0.0284
     17 N           7.2568   -0.6383   -0.0894 N.ar    1  LIG1       -0.2137
     18 O           5.8555   -2.4910    0.3262 O.3     1  LIG1       -0.4773
     19 C           6.9098    0.5387   -2.1489 C.ar    1  LIG1        0.0510
     20 C           4.6415   -5.7860   -0.6236 C.ar    1  LIG1       -0.0579
     21 C           3.6155   -7.1667   -2.2741 C.ar    1  LIG1       -0.0579
     22 C           7.5925    0.3538   -0.9488 C.ar    1  LIG1        0.0602
     23 C           6.6205   -2.6079    1.5184 C.3     1  LIG1        0.0805
     24 C           4.5943   -7.0048   -1.2980 C.ar    1  LIG1       -0.0465
     25 C           8.7169    1.2625   -0.5618 C.3     1  LIG1       -0.0208
     26 C           5.5780   -8.1159   -0.9856 C.3     1  LIG1       -0.0174
     27 C           5.3658   -8.8837    0.3415 C.3     1  LIG1        0.0085
     28 C           6.4395  -10.0119    0.3934 C.2     1  LIG1        0.0477
     29 C           5.6800   -8.0386    1.5825 C.3     1  LIG1       -0.0544
     30 C           3.9509   -9.4646    0.4508 C.3     1  LIG1       -0.0544
     31 O           7.5946   -9.6918   -0.0131 O.co2   1  LIG1       -0.5493
     32 O           6.0574  -11.1231    0.8604 O.co2   1  LIG1       -0.5493
     33 H           4.3030   -1.7134   -3.1147 H       1  LIG1        0.1754
     34 H           0.5368   -0.6294   -2.3389 H       1  LIG1        0.0638
     35 H          -1.3421   -1.7582   -3.4622 H       1  LIG1        0.0633
     36 H           3.7753   -3.9075   -0.2388 H       1  LIG1        0.0624
     37 H           1.9838   -6.3112   -3.3412 H       1  LIG1        0.0624
     38 H          -1.2025   -4.2387   -3.7746 H       1  LIG1        0.0830
     39 H           7.1752    1.3390   -2.8326 H       1  LIG1        0.0848
     40 H           5.3993   -5.6171    0.1378 H       1  LIG1        0.0620
     41 H           3.5297   -8.1076   -2.8120 H       1  LIG1        0.0620
     42 H           6.2494   -3.4780    2.0683 H       1  LIG1        0.0660
     43 H           6.4926   -1.7286    2.1590 H       1  LIG1        0.0660
     44 H           7.6791   -2.7820    1.2961 H       1  LIG1        0.0660
     45 H           9.2158    0.9002    0.3431 H       1  LIG1        0.0293
     46 H           8.3372    2.2697   -0.3638 H       1  LIG1        0.0293
     47 H           9.4621    1.3104   -1.3618 H       1  LIG1        0.0293
     48 H           6.5809   -7.6690   -1.0213 H       1  LIG1        0.0322
     49 H           5.5631   -8.8353   -1.8174 H       1  LIG1        0.0322
     50 H           4.9006   -7.2923    1.7682 H       1  LIG1        0.0239
     51 H           6.6350   -7.5099    1.4801 H       1  LIG1        0.0239
     52 H           5.7471   -8.6581    2.4850 H       1  LIG1        0.0239
     53 H           3.1888   -8.6784    0.4494 H       1  LIG1        0.0239
     54 H           3.8172  -10.0307    1.3802 H       1  LIG1        0.0239
     55 H           3.7382  -10.1451   -0.3816 H       1  LIG1        0.0239
@<TRIPOS>BOND
     1     1     5    2
     2     1     4    2
     3     1     3    1
     4     1     2    1
     5     2     6   ar
     6     2     7   ar
     7     3     8    1
     8     6    10   ar
     9     6     9    1
    10     7    11   ar
    11     8    12   ar
    12     8    13   ar
    13     9    14   ar
    14     9    15   ar
    15    10    16   ar
    16    11    16   ar
    17    12    17   ar
    18    12    18    1
    19    13    19   ar
    20    14    20   ar
    21    15    21   ar
    22    17    22   ar
    23    18    23    1
    24    19    22   ar
    25    20    24   ar
    26    21    24   ar
    27    22    25    1
    28    24    26    1
    29    26    27    1
    30    27    30    1
    31    27    29    1
    32    27    28    1
    33    28    32   ar
    34    28    31   ar
    35     3    33    1
    36     7    34    1
    37    11    35    1
    38    14    36    1
    39    15    37    1
    40    16    38    1
    41    19    39    1
    42    20    40    1
    43    21    41    1
    44    23    42    1
    45    23    43    1
    46    23    44    1
    47    25    45    1
    48    25    46    1
    49    25    47    1
    50    26    48    1
    51    26    49    1
    52    29    50    1
    53    29    51    1
    54    29    52    1
    55    30    53    1
    56    30    54    1
    57    30    55    1
@<TRIPOS>MOLECULE
01178588C
 55 57 0 0 0
SMALL
GASTEIGER

@<TRIPOS>ATOM
      1 S           2.7265   -1.6151   -1.1000 S.O2    1  LIG1        0.0756
      2 C           1.6079   -2.4971   -2.1449 C.ar    1  LIG1        0.1344
      3 N           3.9814   -1.1085   -2.1183 N.pl3   1  LIG1       -0.1951
      4 O           3.3084   -2.5272   -0.1405 O.2     1  LIG1       -0.1499
      5 O           2.0257   -0.4405   -0.6051 O.2     1  LIG1       -0.1499
      6 C           1.7212   -3.8493   -2.4611 C.ar    1  LIG1        0.0975
      7 C           0.4617   -1.7929   -2.5699 C.ar    1  LIG1       -0.0315
      8 C           3.7261    0.0895   -2.8307 C.ar    1  LIG1        0.2006
      9 C           2.8000   -4.7925   -2.0920 C.ar    1  LIG1        0.0023
     10 N           0.7394   -4.4628   -3.1957 N.ar    1  LIG1       -0.2530
     11 C          -0.5187   -2.4268   -3.3183 C.ar    1  LIG1       -0.0417
     12 C           3.0100    0.1563   -4.0333 C.ar    1  LIG1        0.2574
     13 N           4.1462    1.1905   -2.1760 N.ar    1  LIG1       -0.2325
     14 C           2.4726   -6.0772   -1.6120 C.ar    1  LIG1       -0.0523
     15 C           4.1618   -4.5141   -2.2716 C.ar    1  LIG1       -0.0523
     16 C          -0.3351   -3.7589   -3.6048 C.ar    1  LIG1        0.0284
     17 N           2.6335    1.3380   -4.5818 N.ar    1  LIG1       -0.2137
     18 O           2.6924   -1.0202   -4.6769 O.3     1  LIG1       -0.4773
     19 C           3.7572    2.3649   -2.7273 C.ar    1  LIG1        0.0510
     20 C           3.4552   -7.0246   -1.2984 C.ar    1  LIG1       -0.0579
     21 C           5.1500   -5.4418   -1.9123 C.ar    1  LIG1       -0.0579
     22 C           3.0007    2.4481   -3.8950 C.ar    1  LIG1        0.0602
     23 C           2.2829   -0.8303   -6.0269 C.3     1  LIG1        0.0805
     24 C           4.8084   -6.7087   -1.4277 C.ar    1  LIG1       -0.0465
     25 C           2.5461    3.7760   -4.4148 C.3     1  LIG1       -0.0208
     26 C           5.8713   -7.7153   -1.0376 C.3     1  LIG1       -0.0174
     27 C           6.5441   -8.5268   -2.1681 C.3     1  LIG1        0.0085
     28 C           5.5169   -9.5431   -2.7361 C.2     1  LIG1        0.0477
     29 C           7.1669   -7.6406   -3.2528 C.3     1  LIG1       -0.0544
     30 C           7.6725   -9.3792   -1.5518 C.3     1  LIG1       -0.0544
     31 O           5.2798   -9.4611   -3.9746 O.co2   1  LIG1       -0.5493
     32 O           5.0494  -10.3728   -1.9006 O.co2   1  LIG1       -0.5493
     33 H           4.8402   -1.0605   -1.5732 H       1  LIG1        0.1754
     34 H           0.3273   -0.7428   -2.3169 H       1  LIG1        0.0638
     35 H          -1.4016   -1.8974   -3.6559 H       1  LIG1        0.0633
     36 H           1.4284   -6.3661   -1.5053 H       1  LIG1        0.0624
     37 H           4.4849   -3.5786   -2.7135 H       1  LIG1        0.0624
     38 H          -1.0640   -4.3228   -4.1790 H       1  LIG1        0.0830
     39 H           4.0584    3.2541   -2.1822 H       1  LIG1        0.0848
     40 H           3.1580   -8.0187   -0.9666 H       1  LIG1        0.0620
     41 H           6.1961   -5.1779   -2.0402 H       1  LIG1        0.0620
     42 H           2.1420   -1.8183   -6.4763 H       1  LIG1        0.0660
     43 H           3.0535   -0.3092   -6.6067 H       1  LIG1        0.0660
     44 H           1.3267   -0.2994   -6.0809 H       1  LIG1        0.0660
     45 H           1.9546    3.6550   -5.3281 H       1  LIG1        0.0293
     46 H           3.4064    4.4112   -4.6452 H       1  LIG1        0.0293
     47 H           1.9186    4.2766   -3.6703 H       1  LIG1        0.0293
     48 H           5.4366   -8.3978   -0.2928 H       1  LIG1        0.0322
     49 H           6.6439   -7.1675   -0.4794 H       1  LIG1        0.0322
     50 H           7.8648   -6.9162   -2.8180 H       1  LIG1        0.0239
     51 H           6.4109   -7.0887   -3.8203 H       1  LIG1        0.0239
     52 H           7.7287   -8.2403   -3.9788 H       1  LIG1        0.0239
     53 H           8.4733   -8.7418   -1.1585 H       1  LIG1        0.0239
     54 H           8.1169  -10.0510   -2.2957 H       1  LIG1        0.0239
     55 H           7.3165   -9.9995   -0.7211 H       1  LIG1        0.0239
@<TRIPOS>BOND
     1     1     5    2
     2     1     4    2
     3     1     3    1
     4     1     2    1
     5     2     6   ar
     6     2     7   ar
     7     3     8    1
     8     6    10   ar
     9     6     9    1
    10     7    11   ar
    11     8    12   ar
    12     8    13   ar
    13     9    14   ar
    14     9    15   ar
    15    10    16   ar
    16    11    16   ar
    17    12    17   ar
    18    12    18    1
    19    13    19   ar
    20    14    20   ar
    21    15    21   ar
    22    17    22   ar
    23    18    23    1
    24    19    22   ar
    25    20    24   ar
    26    21    24   ar
    27    22    25    1
    28    24    26    1
    29    26    27    1
    30    27    30    1
    31    27    29    1
    32    27    28    1
    33    28    32   ar
    34    28    31   ar
    35     3    33    1
    36     7    34    1
    37    11    35    1
    38    14    36    1
    39    15    37    1
    40    16    38    1
    41    19    39    1
    42    20    40    1
    43    21    41    1
    44    23    42    1
    45    23    43    1
    46    23    44    1
    47    25    45    1
    48    25    46    1
    49    25    47    1
    50    26    48    1
    51    26    49    1
    52    29    50    1
    53    29    51    1
    54    29    52    1
    55    30    53    1
    56    30    54    1
    57    30    55    1
@<TRIPOS>MOLECULE
01178588C
 55 57 0 0 0
SMALL
GASTEIGER

@<TRIPOS>ATOM
      1 S           2.7146   -1.6378   -1.0425 S.O2    1  LIG1        0.0756
      2 C           1.6852   -2.4385   -2.2414 C.ar    1  LIG1        0.1344
      3 N           4.1182   -1.3136   -1.9303 N.pl3   1  LIG1       -0.1951
      4 O           3.0508   -2.5904   -0.0129 O.2     1  LIG1       -0.1499
      5 O           2.0573   -0.3946   -0.6838 O.2     1  LIG1       -0.1499
      6 C           1.7265   -3.8053   -2.5112 C.ar    1  LIG1        0.0975
      7 C           0.6731   -1.6601   -2.8324 C.ar    1  LIG1       -0.0315
      8 C           4.6220    0.0021   -1.7430 C.ar    1  LIG1        0.2006
      9 C           2.7019   -4.8027   -2.0269 C.ar    1  LIG1        0.0023
     10 N           0.7891   -4.3774   -3.3338 N.ar    1  LIG1       -0.2530
     11 C          -0.2699   -2.2497   -3.6631 C.ar    1  LIG1       -0.0417
     12 C           4.0739    1.1735   -2.2833 C.ar    1  LIG1        0.2574
     13 N           5.7149    0.0030   -0.9588 N.ar    1  LIG1       -0.2325
     14 C           4.0836   -4.6811   -2.2340 C.ar    1  LIG1       -0.0523
     15 C           2.2449   -5.9933   -1.4307 C.ar    1  LIG1       -0.0523
     16 C          -0.1743   -3.6063   -3.8770 C.ar    1  LIG1        0.0284
     17 N           4.6085    2.3969   -2.0221 N.ar    1  LIG1       -0.2137
     18 O           3.0003    1.0764   -3.1486 O.3     1  LIG1       -0.4773
     19 C           6.2287    1.2260   -0.6919 C.ar    1  LIG1        0.0510
     20 C           4.9725   -5.6844   -1.8197 C.ar    1  LIG1       -0.0579
     21 C           3.1258   -7.0143   -1.0558 C.ar    1  LIG1       -0.0579
     22 C           5.6884    2.4052   -1.2000 C.ar    1  LIG1        0.0602
     23 C           2.5353    2.3443   -3.5993 C.3     1  LIG1        0.0805
     24 C           4.5023   -6.8692   -1.2427 C.ar    1  LIG1       -0.0465
     25 C           6.2877    3.7286   -0.8392 C.3     1  LIG1       -0.0208
     26 C           5.4632   -7.9896   -0.8973 C.3     1  LIG1       -0.0174
     27 C           5.9097   -8.1261    0.5739 C.3     1  LIG1        0.0085
     28 C           6.8275   -6.9585    1.0222 C.2     1  LIG1        0.0477
     29 C           4.7242   -8.3467    1.5208 C.3     1  LIG1       -0.0544
     30 C           6.8515   -9.3437    0.6886 C.3     1  LIG1       -0.0544
     31 O           6.7549   -6.6395    2.2444 O.co2   1  LIG1       -0.5493
     32 O           7.6036   -6.4956    0.1349 O.co2   1  LIG1       -0.5493
     33 H           4.8397   -1.9421   -1.5626 H       1  LIG1        0.1754
     34 H           0.6017   -0.5939   -2.6270 H       1  LIG1        0.0638
     35 H          -1.0659   -1.6682   -4.1129 H       1  LIG1        0.0633
     36 H           4.4962   -3.8235   -2.7537 H       1  LIG1        0.0624
     37 H           1.1781   -6.1459   -1.2807 H       1  LIG1        0.0624
     38 H          -0.8883   -4.1329   -4.5027 H       1  LIG1        0.0830
     39 H           7.0976    1.2306   -0.0413 H       1  LIG1        0.0848
     40 H           6.0449   -5.5500   -1.9634 H       1  LIG1        0.0620
     41 H           2.7271   -7.9279   -0.6237 H       1  LIG1        0.0620
     42 H           1.6764    2.1719   -4.2551 H       1  LIG1        0.0660
     43 H           3.3008    2.8623   -4.1884 H       1  LIG1        0.0660
     44 H           2.1948    2.9666   -2.7641 H       1  LIG1        0.0660
     45 H           5.7447    4.5476   -1.3218 H       1  LIG1        0.0293
     46 H           7.3321    3.7743   -1.1622 H       1  LIG1        0.0293
     47 H           6.2400    3.8816    0.2436 H       1  LIG1        0.0293
     48 H           6.3416   -7.9009   -1.5524 H       1  LIG1        0.0322
     49 H           4.9912   -8.9305   -1.2163 H       1  LIG1        0.0322
     50 H           4.0798   -9.1583    1.1635 H       1  LIG1        0.0239
     51 H           4.1156   -7.4426    1.6237 H       1  LIG1        0.0239
     52 H           5.0564   -8.6220    2.5288 H       1  LIG1        0.0239
     53 H           6.3335  -10.2680    0.4075 H       1  LIG1        0.0239
     54 H           7.2229   -9.4727    1.7125 H       1  LIG1        0.0239
     55 H           7.7266   -9.2454    0.0351 H       1  LIG1        0.0239
@<TRIPOS>BOND
     1     1     5    2
     2     1     4    2
     3     1     3    1
     4     1     2    1
     5     2     6   ar
     6     2     7   ar
     7     3     8    1
     8     6    10   ar
     9     6     9    1
    10     7    11   ar
    11     8    12   ar
    12     8    13   ar
    13     9    14   ar
    14     9    15   ar
    15    10    16   ar
    16    11    16   ar
    17    12    17   ar
    18    12    18    1
    19    13    19   ar
    20    14    20   ar
    21    15    21   ar
    22    17    22   ar
    23    18    23    1
    24    19    22   ar
    25    20    24   ar
    26    21    24   ar
    27    22    25    1
    28    24    26    1
    29    26    27    1
    30    27    30    1
    31    27    29    1
    32    27    28    1
    33    28    32   ar
    34    28    31   ar
    35     3    33    1
    36     7    34    1
    37    11    35    1
    38    14    36    1
    39    15    37    1
    40    16    38    1
    41    19    39    1
    42    20    40    1
    43    21    41    1
    44    23    42    1
    45    23    43    1
    46    23    44    1
    47    25    45    1
    48    25    46    1
    49    25    47    1
    50    26    48    1
    51    26    49    1
    52    29    50    1
    53    29    51    1
    54    29    52    1
    55    30    53    1
    56    30    54    1
    57    30    55    1
@<TRIPOS>MOLECULE
01178588C
 55 57 0 0 0
SMALL
GASTEIGER

@<TRIPOS>ATOM
      1 S           2.6511   -1.5678   -1.1044 S.O2    1  LIG1        0.0756
      2 C           1.5850   -2.4599   -2.1953 C.ar    1  LIG1        0.1344
      3 N           3.9767   -1.1525   -2.0616 N.pl3   1  LIG1       -0.1951
      4 O           3.1256   -2.4576   -0.0723 O.2     1  LIG1       -0.1499
      5 O           1.9793   -0.3388   -0.7179 O.2     1  LIG1       -0.1499
      6 C           1.7204   -3.8122   -2.5022 C.ar    1  LIG1        0.0975
      7 C           0.4678   -1.7571   -2.6904 C.ar    1  LIG1       -0.0315
      8 C           3.7644   -0.0187   -2.8861 C.ar    1  LIG1        0.2006
      9 C           2.7629   -4.7685   -2.0609 C.ar    1  LIG1        0.0023
     10 N           0.7854   -4.4278   -3.3004 N.ar    1  LIG1       -0.2530
     11 C          -0.4694   -2.3936   -3.4897 C.ar    1  LIG1       -0.0417
     12 C           4.1639    1.2699   -2.5107 C.ar    1  LIG1        0.2574
     13 N           3.0351   -0.2531   -3.9960 N.ar    1  LIG1       -0.2325
     14 C           2.3771   -6.0529   -1.6267 C.ar    1  LIG1       -0.0523
     15 C           4.1399   -4.5206   -2.1317 C.ar    1  LIG1       -0.0523
     16 C          -0.2659   -3.7247   -3.7671 C.ar    1  LIG1        0.0284
     17 N           3.8729    2.3649   -3.2590 N.ar    1  LIG1       -0.2137
     18 O           4.9076    1.4043   -1.3540 O.3     1  LIG1       -0.4773
     19 C           2.7437    0.8444   -4.7332 C.ar    1  LIG1        0.0510
     20 C           3.3116   -7.0361   -1.2800 C.ar    1  LIG1       -0.0579
     21 C           5.0791   -5.4871   -1.7333 C.ar    1  LIG1       -0.0579
     22 C           3.1447    2.1313   -4.3790 C.ar    1  LIG1        0.0602
     23 C           5.0611    2.7603   -0.9508 C.3     1  LIG1        0.0805
     24 C           4.6782   -6.7610   -1.3116 C.ar    1  LIG1       -0.0465
     25 C           2.7707    3.3039   -5.2309 C.3     1  LIG1       -0.0208
     26 C           5.7154   -7.8220   -0.9967 C.3     1  LIG1       -0.0174
     27 C           5.8473   -8.3372    0.4550 C.3     1  LIG1        0.0085
     28 C           6.3026   -7.2174    1.4274 C.2     1  LIG1        0.0477
     29 C           4.5935   -9.0744    0.9393 C.3     1  LIG1       -0.0544
     30 C           7.0297   -9.3296    0.5135 C.3     1  LIG1       -0.0544
     31 O           7.1768   -6.4211    0.9738 O.co2   1  LIG1       -0.5493
     32 O           5.8108   -7.2659    2.5918 O.co2   1  LIG1       -0.5493
     33 H           4.8072   -1.1090   -1.4695 H       1  LIG1        0.1754
     34 H           0.3244   -0.7058   -2.4495 H       1  LIG1        0.0638
     35 H          -1.3335   -1.8659   -3.8742 H       1  LIG1        0.0633
     36 H           1.3205   -6.3103   -1.5798 H       1  LIG1        0.0624
     37 H           4.5209   -3.5808   -2.5129 H       1  LIG1        0.0624
     38 H          -0.9611   -4.2878   -4.3817 H       1  LIG1        0.0830
     39 H           2.1614    0.6578   -5.6301 H       1  LIG1        0.0848
     40 H           2.9530   -8.0196   -0.9939 H       1  LIG1        0.0620
     41 H           6.1402   -5.2425   -1.7609 H       1  LIG1        0.0620
     42 H           5.5993    2.7665    0.0018 H       1  LIG1        0.0660
     43 H           4.0893    3.2397   -0.7874 H       1  LIG1        0.0660
     44 H           5.6600    3.3239   -1.6746 H       1  LIG1        0.0660
     45 H           3.1396    4.2371   -4.7932 H       1  LIG1        0.0293
     46 H           1.6818    3.3774   -5.3170 H       1  LIG1        0.0293
     47 H           3.2034    3.2004   -6.2306 H       1  LIG1        0.0293
     48 H           6.6934   -7.4531   -1.3385 H       1  LIG1        0.0322
     49 H           5.5066   -8.6743   -1.6597 H       1  LIG1        0.0322
     50 H           4.2520   -9.8037    0.1958 H       1  LIG1        0.0239
     51 H           3.7717   -8.3844    1.1533 H       1  LIG1        0.0239
     52 H           4.7844   -9.6281    1.8665 H       1  LIG1        0.0239
     53 H           6.8434  -10.1986   -0.1280 H       1  LIG1        0.0239
     54 H           7.1946   -9.6998    1.5329 H       1  LIG1        0.0239
     55 H           7.9682   -8.8705    0.1803 H       1  LIG1        0.0239
@<TRIPOS>BOND
     1     1     5    2
     2     1     4    2
     3     1     3    1
     4     1     2    1
     5     2     6   ar
     6     2     7   ar
     7     3     8    1
     8     6    10   ar
     9     6     9    1
    10     7    11   ar
    11     8    12   ar
    12     8    13   ar
    13     9    14   ar
    14     9    15   ar
    15    10    16   ar
    16    11    16   ar
    17    12    17   ar
    18    12    18    1
    19    13    19   ar
    20    14    20   ar
    21    15    21   ar
    22    17    22   ar
    23    18    23    1
    24    19    22   ar
    25    20    24   ar
    26    21    24   ar
    27    22    25    1
    28    24    26    1
    29    26    27    1
    30    27    30    1
    31    27    29    1
    32    27    28    1
    33    28    32   ar
    34    28    31   ar
    35     3    33    1
    36     7    34    1
    37    11    35    1
    38    14    36    1
    39    15    37    1
    40    16    38    1
    41    19    39    1
    42    20    40    1
    43    21    41    1
    44    23    42    1
    45    23    43    1
    46    23    44    1
    47    25    45    1
    48    25    46    1
    49    25    47    1
    50    26    48    1
    51    26    49    1
    52    29    50    1
    53    29    51    1
    54    29    52    1
    55    30    53    1
    56    30    54    1
    57    30    55    1
@<TRIPOS>MOLECULE
01178588C
 55 57 0 0 0
SMALL
GASTEIGER

@<TRIPOS>ATOM
      1 S           2.9272   -1.5692   -1.2295 S.O2    1  LIG1        0.0756
      2 C           1.6034   -2.4570   -2.0008 C.ar    1  LIG1        0.1344
      3 N           4.2905   -2.0213   -2.1079 N.pl3   1  LIG1       -0.1951
      4 O           3.0119   -2.0301    0.1380 O.2     1  LIG1       -0.1499
      5 O           2.6777   -0.1648   -1.5014 O.2     1  LIG1       -0.1499
      6 C           1.6396   -3.8254   -2.2527 C.ar    1  LIG1        0.0975
      7 C           0.4822   -1.7175   -2.4163 C.ar    1  LIG1       -0.0315
      8 C           5.2841   -1.0112   -2.1622 C.ar    1  LIG1        0.2006
      9 C           2.7195   -4.7711   -1.9194 C.ar    1  LIG1        0.0023
     10 N           0.6113   -4.4351   -2.9196 N.ar    1  LIG1       -0.2530
     11 C          -0.5656   -2.3488   -3.0730 C.ar    1  LIG1       -0.0417
     12 C           5.9955   -0.5085   -1.0649 C.ar    1  LIG1        0.2574
     13 N           5.4091   -0.5113   -3.4116 N.ar    1  LIG1       -0.2325
     14 C           3.1463   -5.0021   -0.6042 C.ar    1  LIG1       -0.0523
     15 C           3.2963   -5.5565   -2.9347 C.ar    1  LIG1       -0.0523
     16 C          -0.4549   -3.7025   -3.3020 C.ar    1  LIG1        0.0284
     17 N           6.8447    0.5440   -1.1870 N.ar    1  LIG1       -0.2137
     18 O           5.8275   -1.1051    0.1643 O.3     1  LIG1       -0.4773
     19 C           6.2568    0.5398   -3.5146 C.ar    1  LIG1        0.0510
     20 C           4.1324   -5.9550   -0.3180 C.ar    1  LIG1       -0.0579
     21 C           4.2668   -6.5220   -2.6496 C.ar    1  LIG1       -0.0579
     22 C           6.9600    1.0671   -2.4322 C.ar    1  LIG1        0.0602
     23 C           6.6852   -0.5890    1.1726 C.3     1  LIG1        0.0805
     24 C           4.6980   -6.7288   -1.3367 C.ar    1  LIG1       -0.0465
     25 C           7.8385    2.2657   -2.6064 C.3     1  LIG1       -0.0208
     26 C           5.7165   -7.8068   -1.0163 C.3     1  LIG1       -0.0174
     27 C           7.2066   -7.4092   -1.1073 C.3     1  LIG1        0.0085
     28 C           8.0993   -8.6395   -0.7569 C.2     1  LIG1        0.0477
     29 C           7.5954   -6.9388   -2.5148 C.3     1  LIG1       -0.0544
     30 C           7.5785   -6.3421   -0.0705 C.3     1  LIG1       -0.0544
     31 O           7.5062   -9.6381   -0.2626 O.co2   1  LIG1       -0.5493
     32 O           9.3361   -8.5087   -0.9927 O.co2   1  LIG1       -0.5493
     33 H           4.0929   -2.3523   -3.0484 H       1  LIG1        0.1754
     34 H           0.4202   -0.6465   -2.2325 H       1  LIG1        0.0638
     35 H          -1.4395   -1.7970   -3.3998 H       1  LIG1        0.0633
     36 H           2.7000   -4.4665    0.2304 H       1  LIG1        0.0624
     37 H           2.9619   -5.4443   -3.9641 H       1  LIG1        0.0624
     38 H          -1.2367   -4.2561   -3.8136 H       1  LIG1        0.0830
     39 H           6.3493    0.9649   -4.5089 H       1  LIG1        0.0848
     40 H           4.4423   -6.1085    0.7138 H       1  LIG1        0.0620
     41 H           4.6742   -7.1286   -3.4554 H       1  LIG1        0.0620
     42 H           6.5055   -1.1601    2.0887 H       1  LIG1        0.0660
     43 H           6.4581    0.4613    1.3847 H       1  LIG1        0.0660
     44 H           7.7399   -0.7162    0.9040 H       1  LIG1        0.0660
     45 H           8.4183    2.4584   -1.6978 H       1  LIG1        0.0293
     46 H           7.2281    3.1498   -2.8165 H       1  LIG1        0.0293
     47 H           8.5414    2.1108   -3.4308 H       1  LIG1        0.0293
     48 H           5.5201   -8.6597   -1.6823 H       1  LIG1        0.0322
     49 H           5.4894   -8.1839   -0.0085 H       1  LIG1        0.0322
     50 H           7.0703   -6.0192   -2.7923 H       1  LIG1        0.0239
     51 H           7.3621   -7.7054   -3.2627 H       1  LIG1        0.0239
     52 H           8.6661   -6.7197   -2.5976 H       1  LIG1        0.0239
     53 H           7.0635   -5.3958   -0.2669 H       1  LIG1        0.0239
     54 H           8.6534   -6.1269   -0.0738 H       1  LIG1        0.0239
     55 H           7.3160   -6.6662    0.9433 H       1  LIG1        0.0239
@<TRIPOS>BOND
     1     1     5    2
     2     1     4    2
     3     1     3    1
     4     1     2    1
     5     2     6   ar
     6     2     7   ar
     7     3     8    1
     8     6    10   ar
     9     6     9    1
    10     7    11   ar
    11     8    12   ar
    12     8    13   ar
    13     9    14   ar
    14     9    15   ar
    15    10    16   ar
    16    11    16   ar
    17    12    17   ar
    18    12    18    1
    19    13    19   ar
    20    14    20   ar
    21    15    21   ar
    22    17    22   ar
    23    18    23    1
    24    19    22   ar
    25    20    24   ar
    26    21    24   ar
    27    22    25    1
    28    24    26    1
    29    26    27    1
    30    27    30    1
    31    27    29    1
    32    27    28    1
    33    28    32   ar
    34    28    31   ar
    35     3    33    1
    36     7    34    1
    37    11    35    1
    38    14    36    1
    39    15    37    1
    40    16    38    1
    41    19    39    1
    42    20    40    1
    43    21    41    1
    44    23    42    1
    45    23    43    1
    46    23    44    1
    47    25    45    1
    48    25    46    1
    49    25    47    1
    50    26    48    1
    51    26    49    1
    52    29    50    1
    53    29    51    1
    54    29    52    1
    55    30    53    1
    56    30    54    1
    57    30    55    1
@<TRIPOS>MOLECULE
01178588C
 55 57 0 0 0
SMALL
GASTEIGER

@<TRIPOS>ATOM
      1 S           2.7996   -1.6310   -1.0391 S.O2    1  LIG1        0.0756
      2 C           1.6412   -2.5077   -2.0544 C.ar    1  LIG1        0.1344
      3 N           3.9068   -0.9586   -2.1238 N.pl3   1  LIG1       -0.1951
      4 O           3.5391   -2.5644   -0.2191 O.2     1  LIG1       -0.1499
      5 O           2.0687   -0.5558   -0.3948 O.2     1  LIG1       -0.1499
      6 C           1.7536   -3.8512   -2.4089 C.ar    1  LIG1        0.0975
      7 C           0.4947   -1.7919   -2.4542 C.ar    1  LIG1       -0.0315
      8 C           3.3649   -0.2328   -3.2158 C.ar    1  LIG1        0.2006
      9 C           2.8325   -4.8025   -2.0685 C.ar    1  LIG1        0.0023
     10 N           0.7791   -4.4427   -3.1678 N.ar    1  LIG1       -0.2530
     11 C          -0.4851   -2.4052   -3.2215 C.ar    1  LIG1       -0.0417
     12 C           3.2250   -0.7940   -4.4932 C.ar    1  LIG1        0.2574
     13 N           2.8860    0.9887   -2.9170 N.ar    1  LIG1       -0.2325
     14 C           2.5141   -6.0573   -1.5143 C.ar    1  LIG1       -0.0523
     15 C           4.1836   -4.5609   -2.3489 C.ar    1  LIG1       -0.0523
     16 C          -0.2977   -3.7269   -3.5526 C.ar    1  LIG1        0.0284
     17 N           2.6189   -0.1385   -5.5121 N.ar    1  LIG1       -0.2137
     18 O           3.7322   -2.0614   -4.6962 O.3     1  LIG1       -0.4773
     19 C           2.2905    1.6432   -3.9406 C.ar    1  LIG1        0.0510
     20 C           3.5031   -7.0031   -1.2157 C.ar    1  LIG1       -0.0579
     21 C           5.1802   -5.4815   -2.0048 C.ar    1  LIG1       -0.0579
     22 C           2.1461    1.0969   -5.2136 C.ar    1  LIG1        0.0602
     23 C           3.2794   -2.6605   -5.9076 C.3     1  LIG1        0.0805
     24 C           4.8516   -6.7146   -1.4365 C.ar    1  LIG1       -0.0465
     25 C           1.4692    1.8703   -6.3009 C.3     1  LIG1       -0.0208
     26 C           5.9241   -7.7140   -1.0557 C.3     1  LIG1       -0.0174
     27 C           6.5254   -8.5776   -2.1864 C.3     1  LIG1        0.0085
     28 C           5.4762   -9.5800   -2.7355 C.2     1  LIG1        0.0477
     29 C           7.1735   -7.7330   -3.2902 C.3     1  LIG1       -0.0544
     30 C           7.6136   -9.4868   -1.5807 C.3     1  LIG1       -0.0544
     31 O           5.4516   -9.7203   -3.9925 O.co2   1  LIG1       -0.5493
     32 O           4.7924  -10.1925   -1.8632 O.co2   1  LIG1       -0.5493
     33 H           4.6333   -1.6260   -2.3701 H       1  LIG1        0.1754
     34 H           0.3635   -0.7502   -2.1668 H       1  LIG1        0.0638
     35 H          -1.3700   -1.8683   -3.5410 H       1  LIG1        0.0633
     36 H           1.4742   -6.3236   -1.3341 H       1  LIG1        0.0624
     37 H           4.4944   -3.6615   -2.8586 H       1  LIG1        0.0624
     38 H          -1.0257   -4.2728   -4.1457 H       1  LIG1        0.0830
     39 H           1.9198    2.6348   -3.7008 H       1  LIG1        0.0848
     40 H           3.2159   -7.9775   -0.8206 H       1  LIG1        0.0620
     41 H           6.2201   -5.2394   -2.2056 H       1  LIG1        0.0620
     42 H           3.6484   -3.6904   -5.9291 H       1  LIG1        0.0660
     43 H           3.6888   -2.1394   -6.7795 H       1  LIG1        0.0660
     44 H           2.1850   -2.6974   -5.9506 H       1  LIG1        0.0660
     45 H           1.3151    1.2440   -7.1857 H       1  LIG1        0.0293
     46 H           2.0816    2.7300   -6.5894 H       1  LIG1        0.0293
     47 H           0.4895    2.2239   -5.9638 H       1  LIG1        0.0293
     48 H           5.5250   -8.3569   -0.2580 H       1  LIG1        0.0322
     49 H           6.7311   -7.1508   -0.5650 H       1  LIG1        0.0322
     50 H           7.8755   -7.0043   -2.8695 H       1  LIG1        0.0239
     51 H           6.4271   -7.1915   -3.8805 H       1  LIG1        0.0239
     52 H           7.7381   -8.3569   -3.9929 H       1  LIG1        0.0239
     53 H           8.4426   -8.8911   -1.1805 H       1  LIG1        0.0239
     54 H           8.0287  -10.1706   -2.3308 H       1  LIG1        0.0239
     55 H           7.2260  -10.1004   -0.7589 H       1  LIG1        0.0239
@<TRIPOS>BOND
     1     1     5    2
     2     1     4    2
     3     1     3    1
     4     1     2    1
     5     2     6   ar
     6     2     7   ar
     7     3     8    1
     8     6    10   ar
     9     6     9    1
    10     7    11   ar
    11     8    12   ar
    12     8    13   ar
    13     9    14   ar
    14     9    15   ar
    15    10    16   ar
    16    11    16   ar
    17    12    17   ar
    18    12    18    1
    19    13    19   ar
    20    14    20   ar
    21    15    21   ar
    22    17    22   ar
    23    18    23    1
    24    19    22   ar
    25    20    24   ar
    26    21    24   ar
    27    22    25    1
    28    24    26    1
    29    26    27    1
    30    27    30    1
    31    27    29    1
    32    27    28    1
    33    28    32   ar
    34    28    31   ar
    35     3    33    1
    36     7    34    1
    37    11    35    1
    38    14    36    1
    39    15    37    1
    40    16    38    1
    41    19    39    1
    42    20    40    1
    43    21    41    1
    44    23    42    1
    45    23    43    1
    46    23    44    1
    47    25    45    1
    48    25    46    1
    49    25    47    1
    50    26    48    1
    51    26    49    1
    52    29    50    1
    53    29    51    1
    54    29    52    1
    55    30    53    1
    56    30    54    1
    57    30    55    1
@<TRIPOS>MOLECULE
01178588C
 55 57 0 0 0
SMALL
GASTEIGER

@<TRIPOS>ATOM
      1 S           2.6128   -1.6462   -1.0521 S.O2    1  LIG1        0.0756
      2 C           1.5071   -2.5329   -2.1057 C.ar    1  LIG1        0.1344
      3 N           3.8812   -1.1453   -2.0496 N.pl3   1  LIG1       -0.1951
      4 O           3.1758   -2.5584   -0.0817 O.2     1  LIG1       -0.1499
      5 O           1.9112   -0.4685   -0.5776 O.2     1  LIG1       -0.1499
      6 C           1.6790   -3.8643   -2.4762 C.ar    1  LIG1        0.0975
      7 C           0.3298   -1.8652   -2.4946 C.ar    1  LIG1       -0.0315
      8 C           3.6488    0.0539   -2.7663 C.ar    1  LIG1        0.2006
      9 C           2.7913   -4.7712   -2.1232 C.ar    1  LIG1        0.0023
     10 N           0.7294   -4.4928   -3.2378 N.ar    1  LIG1       -0.2530
     11 C          -0.6231   -2.5137   -3.2679 C.ar    1  LIG1       -0.0417
     12 C           2.8976    0.1376   -3.9461 C.ar    1  LIG1        0.2574
     13 N           4.1369    1.1430   -2.1386 N.ar    1  LIG1       -0.2325
     14 C           2.5076   -6.0447   -1.5929 C.ar    1  LIG1       -0.0523
     15 C           4.1388   -4.4660   -2.3608 C.ar    1  LIG1       -0.0523
     16 C          -0.3777   -3.8220   -3.6146 C.ar    1  LIG1        0.0284
     17 N           2.5700    1.3280   -4.5084 N.ar    1  LIG1       -0.2137
     18 O           2.5203   -1.0327   -4.5689 O.3     1  LIG1       -0.4773
     19 C           3.7966    2.3261   -2.7035 C.ar    1  LIG1        0.0510
     20 C           3.5225   -6.9552   -1.2791 C.ar    1  LIG1       -0.0579
     21 C           5.1609   -5.3605   -2.0104 C.ar    1  LIG1       -0.0579
     22 C           3.0190    2.4286   -3.8555 C.ar    1  LIG1        0.0602
     23 C           1.8325   -0.8326   -5.7978 C.3     1  LIG1        0.0805
     24 C           4.8631   -6.6143   -1.4653 C.ar    1  LIG1       -0.0465
     25 C           2.6365    3.7689   -4.4004 C.3     1  LIG1       -0.0208
     26 C           5.9558   -7.5882   -1.0748 C.3     1  LIG1       -0.0174
     27 C           6.5306   -8.4894   -2.1890 C.3     1  LIG1        0.0085
     28 C           5.4927   -9.5330   -2.6816 C.2     1  LIG1        0.0477
     29 C           7.1403   -7.6724   -3.3342 C.3     1  LIG1       -0.0544
     30 C           7.6401   -9.3731   -1.5821 C.3     1  LIG1       -0.0544
     31 O           5.4940   -9.7681   -3.9248 O.co2   1  LIG1       -0.5493
     32 O           4.7971  -10.0849   -1.7787 O.co2   1  LIG1       -0.5493
     33 H           4.7386   -1.1135   -1.5015 H       1  LIG1        0.1754
     34 H           0.1496   -0.8339   -2.1992 H       1  LIG1        0.0638
     35 H          -1.5314   -2.0123   -3.5811 H       1  LIG1        0.0633
     36 H           1.4748   -6.3535   -1.4431 H       1  LIG1        0.0624
     37 H           4.4198   -3.5372   -2.8452 H       1  LIG1        0.0624
     38 H          -1.0805   -4.3927   -4.2139 H       1  LIG1        0.0830
     39 H           4.1599    3.2080   -2.1851 H       1  LIG1        0.0848
     40 H           3.2616   -7.9442   -0.9021 H       1  LIG1        0.0620
     41 H           6.1959   -5.0822   -2.1886 H       1  LIG1        0.0620
     42 H           1.5948   -1.8173   -6.2117 H       1  LIG1        0.0660
     43 H           2.4617   -0.3085   -6.5256 H       1  LIG1        0.0660
     44 H           0.8877   -0.3007   -5.6409 H       1  LIG1        0.0660
     45 H           2.0408    3.6628   -5.3129 H       1  LIG1        0.0293
     46 H           3.5301    4.3521   -4.6421 H       1  LIG1        0.0293
     47 H           2.0369    4.3166   -3.6664 H       1  LIG1        0.0293
     48 H           5.5830   -8.2032   -0.2432 H       1  LIG1        0.0322
     49 H           6.7721   -7.0026   -0.6279 H       1  LIG1        0.0322
     50 H           7.8446   -6.9241   -2.9535 H       1  LIG1        0.0239
     51 H           6.3711   -7.1555   -3.9173 H       1  LIG1        0.0239
     52 H           7.6936   -8.3101   -4.0337 H       1  LIG1        0.0239
     53 H           8.4701   -8.7605   -1.2117 H       1  LIG1        0.0239
     54 H           8.0484  -10.0715   -2.3226 H       1  LIG1        0.0239
     55 H           7.2726   -9.9705   -0.7392 H       1  LIG1        0.0239
@<TRIPOS>BOND
     1     1     5    2
     2     1     4    2
     3     1     3    1
     4     1     2    1
     5     2     6   ar
     6     2     7   ar
     7     3     8    1
     8     6    10   ar
     9     6     9    1
    10     7    11   ar
    11     8    12   ar
    12     8    13   ar
    13     9    14   ar
    14     9    15   ar
    15    10    16   ar
    16    11    16   ar
    17    12    17   ar
    18    12    18    1
    19    13    19   ar
    20    14    20   ar
    21    15    21   ar
    22    17    22   ar
    23    18    23    1
    24    19    22   ar
    25    20    24   ar
    26    21    24   ar
    27    22    25    1
    28    24    26    1
    29    26    27    1
    30    27    30    1
    31    27    29    1
    32    27    28    1
    33    28    32   ar
    34    28    31   ar
    35     3    33    1
    36     7    34    1
    37    11    35    1
    38    14    36    1
    39    15    37    1
    40    16    38    1
    41    19    39    1
    42    20    40    1
    43    21    41    1
    44    23    42    1
    45    23    43    1
    46    23    44    1
    47    25    45    1
    48    25    46    1
    49    25    47    1
    50    26    48    1
    51    26    49    1
    52    29    50    1
    53    29    51    1
    54    29    52    1
    55    30    53    1
    56    30    54    1
    57    30    55    1
@<TRIPOS>MOLECULE
01178588C
 55 57 0 0 0
SMALL
GASTEIGER

@<TRIPOS>ATOM
      1 S           2.9648   -1.5234   -1.2503 S.O2    1  LIG1        0.0756
      2 C           1.6158   -2.4386   -1.9408 C.ar    1  LIG1        0.1344
      3 N           4.3206   -2.0296   -2.1112 N.pl3   1  LIG1       -0.1951
      4 O           3.0627   -1.8956    0.1429 O.2     1  LIG1       -0.1499
      5 O           2.7269   -0.1338   -1.6010 O.2     1  LIG1       -0.1499
      6 C           1.6202   -3.8123   -2.1717 C.ar    1  LIG1        0.0975
      7 C           0.4801   -1.6885   -2.3098 C.ar    1  LIG1       -0.0315
      8 C           5.3303   -1.0330   -2.1755 C.ar    1  LIG1        0.2006
      9 C           2.6977   -4.8019   -1.9237 C.ar    1  LIG1        0.0023
     10 N           0.5295   -4.4037   -2.7592 N.ar    1  LIG1       -0.2530
     11 C          -0.6143   -2.3047   -2.8984 C.ar    1  LIG1       -0.0417
     12 C           6.0503   -0.5345   -1.0808 C.ar    1  LIG1        0.2574
     13 N           5.4351   -0.5167   -3.4197 N.ar    1  LIG1       -0.2325
     14 C           3.4465   -4.8839   -0.7428 C.ar    1  LIG1       -0.0523
     15 C           2.9380   -5.8065   -2.8852 C.ar    1  LIG1       -0.0523
     16 C          -0.5432   -3.6615   -3.1009 C.ar    1  LIG1        0.0284
     17 N           6.8877    0.5275   -1.2010 N.ar    1  LIG1       -0.2137
     18 O           5.9059   -1.1483    0.1432 O.3     1  LIG1       -0.4773
     19 C           6.2687    0.5460   -3.5203 C.ar    1  LIG1        0.0510
     20 C           4.4219   -5.8785   -0.5573 C.ar    1  LIG1       -0.0579
     21 C           3.8740   -6.8271   -2.6842 C.ar    1  LIG1       -0.0579
     22 C           6.9788    1.0691   -2.4404 C.ar    1  LIG1        0.0602
     23 C           6.7095   -0.5782    1.1672 C.3     1  LIG1        0.0805
     24 C           4.6478   -6.8627   -1.5261 C.ar    1  LIG1       -0.0465
     25 C           7.8345    2.2853   -2.6086 C.3     1  LIG1       -0.0208
     26 C           5.6441   -7.9806   -1.2720 C.3     1  LIG1       -0.0174
     27 C           6.8610   -8.0895   -2.2222 C.3     1  LIG1        0.0085
     28 C           7.8204   -9.1511   -1.6028 C.2     1  LIG1        0.0477
     29 C           6.5166   -8.6983   -3.5883 C.3     1  LIG1       -0.0544
     30 C           7.5709   -6.7444   -2.4079 C.3     1  LIG1       -0.0544
     31 O           7.2637  -10.1775   -1.1158 O.co2   1  LIG1       -0.5493
     32 O           9.0566   -8.8940   -1.6783 O.co2   1  LIG1       -0.5493
     33 H           4.1156   -2.3629   -3.0498 H       1  LIG1        0.1754
     34 H           0.4435   -0.6132   -2.1426 H       1  LIG1        0.0638
     35 H          -1.4915   -1.7392   -3.1907 H       1  LIG1        0.0633
     36 H           3.2720   -4.2088    0.0883 H       1  LIG1        0.0624
     37 H           2.3516   -5.8300   -3.8029 H       1  LIG1        0.0624
     38 H          -1.3604   -4.2115   -3.5580 H       1  LIG1        0.0830
     39 H           6.3411    0.9860   -4.5097 H       1  LIG1        0.0848
     40 H           4.9850   -5.8963    0.3743 H       1  LIG1        0.0620
     41 H           3.9687   -7.6078   -3.4329 H       1  LIG1        0.0620
     42 H           6.5367   -1.1491    2.0847 H       1  LIG1        0.0660
     43 H           6.4232    0.4609    1.3630 H       1  LIG1        0.0660
     44 H           7.7757   -0.6529    0.9261 H       1  LIG1        0.0660
     45 H           8.4257    2.4726   -1.7065 H       1  LIG1        0.0293
     46 H           7.2058    3.1620   -2.7935 H       1  LIG1        0.0293
     47 H           8.5258    2.1563   -3.4467 H       1  LIG1        0.0293
     48 H           5.0709   -8.9187   -1.2698 H       1  LIG1        0.0322
     49 H           6.0166   -7.8759   -0.2424 H       1  LIG1        0.0322
     50 H           6.0158   -7.9745   -4.2383 H       1  LIG1        0.0239
     51 H           5.8617   -9.5719   -3.4884 H       1  LIG1        0.0239
     52 H           7.4166   -9.0280   -4.1217 H       1  LIG1        0.0239
     53 H           6.9161   -6.0022   -2.8766 H       1  LIG1        0.0239
     54 H           8.4521   -6.8385   -3.0532 H       1  LIG1        0.0239
     55 H           7.9078   -6.3405   -1.4466 H       1  LIG1        0.0239
@<TRIPOS>BOND
     1     1     5    2
     2     1     4    2
     3     1     3    1
     4     1     2    1
     5     2     6   ar
     6     2     7   ar
     7     3     8    1
     8     6    10   ar
     9     6     9    1
    10     7    11   ar
    11     8    12   ar
    12     8    13   ar
    13     9    14   ar
    14     9    15   ar
    15    10    16   ar
    16    11    16   ar
    17    12    17   ar
    18    12    18    1
    19    13    19   ar
    20    14    20   ar
    21    15    21   ar
    22    17    22   ar
    23    18    23    1
    24    19    22   ar
    25    20    24   ar
    26    21    24   ar
    27    22    25    1
    28    24    26    1
    29    26    27    1
    30    27    30    1
    31    27    29    1
    32    27    28    1
    33    28    32   ar
    34    28    31   ar
    35     3    33    1
    36     7    34    1
    37    11    35    1
    38    14    36    1
    39    15    37    1
    40    16    38    1
    41    19    39    1
    42    20    40    1
    43    21    41    1
    44    23    42    1
    45    23    43    1
    46    23    44    1
    47    25    45    1
    48    25    46    1
    49    25    47    1
    50    26    48    1
    51    26    49    1
    52    29    50    1
    53    29    51    1
    54    29    52    1
    55    30    53    1
    56    30    54    1
    57    30    55    1
@<TRIPOS>MOLECULE
01178588C
 55 57 0 0 0
SMALL
GASTEIGER

@<TRIPOS>ATOM
      1 S           2.6454   -1.5987   -1.0786 S.O2    1  LIG1        0.0756
      2 C           1.5319   -2.4806   -2.1284 C.ar    1  LIG1        0.1344
      3 N           3.9516   -1.2356   -2.0721 N.pl3   1  LIG1       -0.1951
      4 O           3.1114   -2.4926   -0.0427 O.2     1  LIG1       -0.1499
      5 O           2.0028   -0.3551   -0.6917 O.2     1  LIG1       -0.1499
      6 C           1.6788   -3.8292   -2.4298 C.ar    1  LIG1        0.0975
      7 C           0.3917   -1.7999   -2.5884 C.ar    1  LIG1       -0.0315
      8 C           3.7599   -0.0931   -2.8866 C.ar    1  LIG1        0.2006
      9 C           2.7976   -4.7081   -2.0521 C.ar    1  LIG1        0.0023
     10 N           0.7260   -4.4919   -3.1597 N.ar    1  LIG1       -0.2530
     11 C          -0.5604   -2.4698   -3.3445 C.ar    1  LIG1       -0.0417
     12 C           4.1762    1.1889   -2.5046 C.ar    1  LIG1        0.2574
     13 N           3.0103   -0.3096   -3.9879 N.ar    1  LIG1       -0.2325
     14 C           2.5640   -5.8348   -1.2463 C.ar    1  LIG1       -0.0523
     15 C           4.0951   -4.5211   -2.5512 C.ar    1  LIG1       -0.0523
     16 C          -0.3506   -3.8078   -3.5997 C.ar    1  LIG1        0.0284
     17 N           3.8897    2.2923   -3.2425 N.ar    1  LIG1       -0.2137
     18 O           4.9129    1.3121   -1.3420 O.3     1  LIG1       -0.4773
     19 C           2.7326    0.7950   -4.7188 C.ar    1  LIG1        0.0510
     20 C           3.5891   -6.7364   -0.9419 C.ar    1  LIG1       -0.0579
     21 C           5.1242   -5.4220   -2.2449 C.ar    1  LIG1       -0.0579
     22 C           3.1546    2.0742   -4.3612 C.ar    1  LIG1        0.0602
     23 C           5.1055    2.6663   -0.9498 C.3     1  LIG1        0.0805
     24 C           4.8825   -6.5409   -1.4402 C.ar    1  LIG1       -0.0465
     25 C           2.7968    3.2554   -5.2078 C.3     1  LIG1       -0.0208
     26 C           5.9696   -7.5627   -1.1657 C.3     1  LIG1       -0.0174
     27 C           7.1767   -7.1047   -0.3164 C.3     1  LIG1        0.0085
     28 C           8.1823   -6.2663   -1.1487 C.2     1  LIG1        0.0477
     29 C           6.7330   -6.4031    0.9726 C.3     1  LIG1       -0.0544
     30 C           8.0100   -8.3461    0.0651 C.3     1  LIG1       -0.0544
     31 O           8.6886   -5.2645   -0.5673 O.co2   1  LIG1       -0.5493
     32 O           8.4122   -6.6861   -2.3208 O.co2   1  LIG1       -0.5493
     33 H           4.8185   -1.2629   -1.5359 H       1  LIG1        0.1754
     34 H           0.2454   -0.7466   -2.3606 H       1  LIG1        0.0638
     35 H          -1.4432   -1.9624   -3.7154 H       1  LIG1        0.0633
     36 H           1.5627   -6.0296   -0.8691 H       1  LIG1        0.0624
     37 H           4.3200   -3.6912   -3.2161 H       1  LIG1        0.0624
     38 H          -1.0598   -4.3905   -4.1797 H       1  LIG1        0.0830
     39 H           2.1444    0.6213   -5.6140 H       1  LIG1        0.0848
     40 H           3.3652   -7.6044   -0.3278 H       1  LIG1        0.0620
     41 H           6.1174   -5.2572   -2.6624 H       1  LIG1        0.0620
     42 H           5.6434    2.6651    0.0031 H       1  LIG1        0.0660
     43 H           4.1481    3.1750   -0.7899 H       1  LIG1        0.0660
     44 H           5.7202    3.2070   -1.6778 H       1  LIG1        0.0660
     45 H           3.1771    4.1819   -4.7656 H       1  LIG1        0.0293
     46 H           1.7093    3.3433   -5.2953 H       1  LIG1        0.0293
     47 H           3.2298    3.1507   -6.2074 H       1  LIG1        0.0293
     48 H           6.2937   -7.9645   -2.1351 H       1  LIG1        0.0322
     49 H           5.5030   -8.4199   -0.6586 H       1  LIG1        0.0322
     50 H           6.0147   -7.0158    1.5290 H       1  LIG1        0.0239
     51 H           6.2657   -5.4344    0.7657 H       1  LIG1        0.0239
     52 H           7.5831   -6.2125    1.6384 H       1  LIG1        0.0239
     53 H           7.4390   -9.0157    0.7191 H       1  LIG1        0.0239
     54 H           8.9275   -8.0687    0.5979 H       1  LIG1        0.0239
     55 H           8.3056   -8.9262   -0.8172 H       1  LIG1        0.0239
@<TRIPOS>BOND
     1     1     5    2
     2     1     4    2
     3     1     3    1
     4     1     2    1
     5     2     6   ar
     6     2     7   ar
     7     3     8    1
     8     6    10   ar
     9     6     9    1
    10     7    11   ar
    11     8    12   ar
    12     8    13   ar
    13     9    14   ar
    14     9    15   ar
    15    10    16   ar
    16    11    16   ar
    17    12    17   ar
    18    12    18    1
    19    13    19   ar
    20    14    20   ar
    21    15    21   ar
    22    17    22   ar
    23    18    23    1
    24    19    22   ar
    25    20    24   ar
    26    21    24   ar
    27    22    25    1
    28    24    26    1
    29    26    27    1
    30    27    30    1
    31    27    29    1
    32    27    28    1
    33    28    32   ar
    34    28    31   ar
    35     3    33    1
    36     7    34    1
    37    11    35    1
    38    14    36    1
    39    15    37    1
    40    16    38    1
    41    19    39    1
    42    20    40    1
    43    21    41    1
    44    23    42    1
    45    23    43    1
    46    23    44    1
    47    25    45    1
    48    25    46    1
    49    25    47    1
    50    26    48    1
    51    26    49    1
    52    29    50    1
    53    29    51    1
    54    29    52    1
    55    30    53    1
    56    30    54    1
    57    30    55    1
@<TRIPOS>MOLECULE
01178588C
 55 57 0 0 0
SMALL
GASTEIGER

@<TRIPOS>ATOM
      1 S           2.7223   -1.6558   -1.0377 S.O2    1  LIG1        0.0756
      2 C           1.5891   -2.5146   -2.0971 C.ar    1  LIG1        0.1344
      3 N           3.8865   -1.0213   -2.0871 N.pl3   1  LIG1       -0.1951
      4 O           3.3938   -2.6063   -0.1816 O.2     1  LIG1       -0.1499
      5 O           1.9855   -0.5600   -0.4388 O.2     1  LIG1       -0.1499
      6 C           1.6821   -3.8623   -2.4396 C.ar    1  LIG1        0.0975
      7 C           0.4810   -1.7725   -2.5529 C.ar    1  LIG1       -0.0315
      8 C           3.4019   -0.2847   -3.1954 C.ar    1  LIG1        0.2006
      9 C           2.6856   -4.8619   -2.0172 C.ar    1  LIG1        0.0023
     10 N           0.7333   -4.4277   -3.2554 N.ar    1  LIG1       -0.2530
     11 C          -0.4766   -2.3601   -3.3652 C.ar    1  LIG1       -0.0417
     12 C           3.2615   -0.8485   -4.4723 C.ar    1  LIG1        0.2574
     13 N           2.9456    0.9506   -2.9123 N.ar    1  LIG1       -0.2325
     14 C           4.0662   -4.7158   -2.2085 C.ar    1  LIG1       -0.0523
     15 C           2.2448   -6.0832   -1.4697 C.ar    1  LIG1       -0.0523
     16 C          -0.3046   -3.6847   -3.6918 C.ar    1  LIG1        0.0284
     17 N           2.6702   -0.1877   -5.4996 N.ar    1  LIG1       -0.2137
     18 O           3.7272   -2.1355   -4.6611 O.3     1  LIG1       -0.4773
     19 C           2.3692    1.6108   -3.9425 C.ar    1  LIG1        0.0510
     20 C           4.9668   -5.7202   -1.8206 C.ar    1  LIG1       -0.0579
     21 C           3.1362   -7.1031   -1.1209 C.ar    1  LIG1       -0.0579
     22 C           2.2187    1.0581   -5.2115 C.ar    1  LIG1        0.0602
     23 C           3.3088   -2.7056   -5.8972 C.3     1  LIG1        0.0805
     24 C           4.5112   -6.9292   -1.2853 C.ar    1  LIG1       -0.0465
     25 C           1.5481    1.8329   -6.3019 C.3     1  LIG1       -0.0208
     26 C           5.4864   -8.0357   -0.9374 C.3     1  LIG1       -0.0174
     27 C           5.9272   -8.1593    0.5372 C.3     1  LIG1        0.0085
     28 C           6.8523   -6.9941    0.9776 C.2     1  LIG1        0.0477
     29 C           4.7367   -8.3616    1.4836 C.3     1  LIG1       -0.0544
     30 C           6.8613   -9.3803    0.6692 C.3     1  LIG1       -0.0544
     31 O           6.7843   -6.6689    2.1983 O.co2   1  LIG1       -0.5493
     32 O           7.6309   -6.5424    0.0859 O.co2   1  LIG1       -0.5493
     33 H           4.6122   -1.7060   -2.2912 H       1  LIG1        0.1754
     34 H           0.3625   -0.7266   -2.2708 H       1  LIG1        0.0638
     35 H          -1.3326   -1.8009   -3.7235 H       1  LIG1        0.0633
     36 H           4.4791   -3.8272   -2.6673 H       1  LIG1        0.0624
     37 H           1.1794   -6.2564   -1.3275 H       1  LIG1        0.0624
     38 H          -1.0167   -4.2103   -4.3210 H       1  LIG1        0.0830
     39 H           2.0145    2.6095   -3.7086 H       1  LIG1        0.0848
     40 H           6.0390   -5.5590   -1.9373 H       1  LIG1        0.0620
     41 H           2.7480   -8.0336   -0.7159 H       1  LIG1        0.0620
     42 H           3.6592   -3.7423   -5.9226 H       1  LIG1        0.0660
     43 H           3.7584   -2.1799   -6.7463 H       1  LIG1        0.0660
     44 H           2.2163   -2.7219   -5.9800 H       1  LIG1        0.0660
     45 H           1.3985    1.2087   -7.1878 H       1  LIG1        0.0293
     46 H           2.1612    2.6941   -6.5862 H       1  LIG1        0.0293
     47 H           0.5668    2.1860   -5.9696 H       1  LIG1        0.0293
     48 H           6.3649   -7.9368   -1.5913 H       1  LIG1        0.0322
     49 H           5.0272   -8.9841   -1.2541 H       1  LIG1        0.0322
     50 H           4.0896   -9.1739    1.1343 H       1  LIG1        0.0239
     51 H           4.1334   -7.4535    1.5729 H       1  LIG1        0.0239
     52 H           5.0643   -8.6259    2.4952 H       1  LIG1        0.0239
     53 H           6.3392  -10.3054    0.3967 H       1  LIG1        0.0239
     54 H           7.2278   -9.5000    1.6961 H       1  LIG1        0.0239
     55 H           7.7395   -9.2944    0.0182 H       1  LIG1        0.0239
@<TRIPOS>BOND
     1     1     5    2
     2     1     4    2
     3     1     3    1
     4     1     2    1
     5     2     6   ar
     6     2     7   ar
     7     3     8    1
     8     6    10   ar
     9     6     9    1
    10     7    11   ar
    11     8    12   ar
    12     8    13   ar
    13     9    14   ar
    14     9    15   ar
    15    10    16   ar
    16    11    16   ar
    17    12    17   ar
    18    12    18    1
    19    13    19   ar
    20    14    20   ar
    21    15    21   ar
    22    17    22   ar
    23    18    23    1
    24    19    22   ar
    25    20    24   ar
    26    21    24   ar
    27    22    25    1
    28    24    26    1
    29    26    27    1
    30    27    30    1
    31    27    29    1
    32    27    28    1
    33    28    32   ar
    34    28    31   ar
    35     3    33    1
    36     7    34    1
    37    11    35    1
    38    14    36    1
    39    15    37    1
    40    16    38    1
    41    19    39    1
    42    20    40    1
    43    21    41    1
    44    23    42    1
    45    23    43    1
    46    23    44    1
    47    25    45    1
    48    25    46    1
    49    25    47    1
    50    26    48    1
    51    26    49    1
    52    29    50    1
    53    29    51    1
    54    29    52    1
    55    30    53    1
    56    30    54    1
    57    30    55    1
@<TRIPOS>MOLECULE
01178588C
 55 57 0 0 0
SMALL
GASTEIGER

@<TRIPOS>ATOM
      1 S           2.8796   -1.5624   -1.1088 S.O2    1  LIG1        0.0756
      2 C           1.6900   -2.4738   -2.0541 C.ar    1  LIG1        0.1344
      3 N           3.9381   -1.0863   -2.3406 N.pl3   1  LIG1       -0.1951
      4 O           3.5452   -2.4399   -0.1760 O.2     1  LIG1       -0.1499
      5 O           2.2015   -0.3749   -0.6219 O.2     1  LIG1       -0.1499
      6 C           1.7985   -3.8289   -2.3596 C.ar    1  LIG1        0.0975
      7 C           0.5551   -1.7599   -2.4899 C.ar    1  LIG1       -0.0315
      8 C           4.5920    0.1436   -2.0942 C.ar    1  LIG1        0.2006
      9 C           2.8876   -4.7699   -2.0147 C.ar    1  LIG1        0.0023
     10 N           0.8078   -4.4410   -3.0821 N.ar    1  LIG1       -0.2530
     11 C          -0.4364   -2.3975   -3.2208 C.ar    1  LIG1       -0.0417
     12 C           5.5220    0.3915   -1.0785 C.ar    1  LIG1        0.2574
     13 N           4.2006    1.0852   -2.9818 N.ar    1  LIG1       -0.2325
     14 C           2.5689   -6.0540   -1.5296 C.ar    1  LIG1       -0.0523
     15 C           4.2476   -4.4946   -2.2216 C.ar    1  LIG1       -0.0523
     16 C          -0.2661   -3.7353   -3.4902 C.ar    1  LIG1        0.0284
     17 N           6.0797    1.6180   -0.9096 N.ar    1  LIG1       -0.2137
     18 O           5.9207   -0.6529   -0.2767 O.3     1  LIG1       -0.4773
     19 C           4.7545    2.3051   -2.7901 C.ar    1  LIG1        0.0510
     20 C           3.5572   -6.9999   -1.2332 C.ar    1  LIG1       -0.0579
     21 C           5.2424   -5.4241   -1.8869 C.ar    1  LIG1       -0.0579
     22 C           5.6744    2.5769   -1.7791 C.ar    1  LIG1        0.0602
     23 C           6.8766   -0.2882    0.7088 C.3     1  LIG1        0.0805
     24 C           4.9078   -6.6869   -1.3908 C.ar    1  LIG1       -0.0465
     25 C           6.2314    3.9555   -1.6108 C.3     1  LIG1       -0.0208
     26 C           5.9744   -7.6960   -1.0221 C.3     1  LIG1       -0.0174
     27 C           6.5325   -8.5772   -2.1606 C.3     1  LIG1        0.0085
     28 C           5.4787   -9.5933   -2.6812 C.2     1  LIG1        0.0477
     29 C           7.1535   -7.7418   -3.2862 C.3     1  LIG1       -0.0544
     30 C           7.6269   -9.4947   -1.5778 C.3     1  LIG1       -0.0544
     31 O           5.5008   -9.8204   -3.9250 O.co2   1  LIG1       -0.5493
     32 O           4.7525  -10.1328   -1.7964 O.co2   1  LIG1       -0.5493
     33 H           3.4779   -1.0319   -3.2471 H       1  LIG1        0.1754
     34 H           0.4368   -0.7032   -2.2567 H       1  LIG1        0.0638
     35 H          -1.3172   -1.8666   -3.5627 H       1  LIG1        0.0633
     36 H           1.5277   -6.3445   -1.4016 H       1  LIG1        0.0624
     37 H           4.5727   -3.5550   -2.6528 H       1  LIG1        0.0624
     38 H          -1.0020   -4.3009   -4.0545 H       1  LIG1        0.0830
     39 H           4.4309    3.0758   -3.4825 H       1  LIG1        0.0848
     40 H           3.2677   -7.9937   -0.8917 H       1  LIG1        0.0620
     41 H           6.2859   -5.1591   -2.0342 H       1  LIG1        0.0620
     42 H           7.1212   -1.1852    1.2858 H       1  LIG1        0.0660
     43 H           6.4679    0.4545    1.4025 H       1  LIG1        0.0660
     44 H           7.8035    0.0726    0.2490 H       1  LIG1        0.0660
     45 H           7.0273    3.9646   -0.8593 H       1  LIG1        0.0293
     46 H           5.4434    4.6415   -1.2851 H       1  LIG1        0.0293
     47 H           6.6529    4.3152   -2.5547 H       1  LIG1        0.0293
     48 H           5.5842   -8.3241   -0.2085 H       1  LIG1        0.0322
     49 H           6.8029   -7.1421   -0.5571 H       1  LIG1        0.0322
     50 H           7.8679   -7.0123   -2.8882 H       1  LIG1        0.0239
     51 H           6.3915   -7.2010   -3.8567 H       1  LIG1        0.0239
     52 H           7.6985   -8.3696   -4.0008 H       1  LIG1        0.0239
     53 H           8.4648   -8.9055   -1.1878 H       1  LIG1        0.0239
     54 H           8.0273  -10.1770   -2.3374 H       1  LIG1        0.0239
     55 H           7.2478  -10.1109   -0.7537 H       1  LIG1        0.0239
@<TRIPOS>BOND
     1     1     5    2
     2     1     4    2
     3     1     3    1
     4     1     2    1
     5     2     6   ar
     6     2     7   ar
     7     3     8    1
     8     6    10   ar
     9     6     9    1
    10     7    11   ar
    11     8    12   ar
    12     8    13   ar
    13     9    14   ar
    14     9    15   ar
    15    10    16   ar
    16    11    16   ar
    17    12    17   ar
    18    12    18    1
    19    13    19   ar
    20    14    20   ar
    21    15    21   ar
    22    17    22   ar
    23    18    23    1
    24    19    22   ar
    25    20    24   ar
    26    21    24   ar
    27    22    25    1
    28    24    26    1
    29    26    27    1
    30    27    30    1
    31    27    29    1
    32    27    28    1
    33    28    32   ar
    34    28    31   ar
    35     3    33    1
    36     7    34    1
    37    11    35    1
    38    14    36    1
    39    15    37    1
    40    16    38    1
    41    19    39    1
    42    20    40    1
    43    21    41    1
    44    23    42    1
    45    23    43    1
    46    23    44    1
    47    25    45    1
    48    25    46    1
    49    25    47    1
    50    26    48    1
    51    26    49    1
    52    29    50    1
    53    29    51    1
    54    29    52    1
    55    30    53    1
    56    30    54    1
    57    30    55    1
@<TRIPOS>MOLECULE
01178588C
 55 57 0 0 0
SMALL
GASTEIGER

@<TRIPOS>ATOM
      1 S           2.6410   -1.5815   -1.1121 S.O2    1  LIG1        0.0756
      2 C           1.5661   -2.4778   -2.1915 C.ar    1  LIG1        0.1344
      3 N           3.9646   -1.1812   -2.0757 N.pl3   1  LIG1       -0.1951
      4 O           3.1140   -2.4675   -0.0760 O.2     1  LIG1       -0.1499
      5 O           1.9787   -0.3457   -0.7313 O.2     1  LIG1       -0.1499
      6 C           1.7019   -3.8303   -2.4982 C.ar    1  LIG1        0.0975
      7 C           0.4434   -1.7786   -2.6790 C.ar    1  LIG1       -0.0315
      8 C           3.7689   -0.0446   -2.8995 C.ar    1  LIG1        0.2006
      9 C           2.7472   -4.7851   -2.0597 C.ar    1  LIG1        0.0023
     10 N           0.7642   -4.4485   -3.2914 N.ar    1  LIG1       -0.2530
     11 C          -0.4967   -2.4174   -3.4734 C.ar    1  LIG1       -0.0417
     12 C           4.2992    1.2121   -2.5824 C.ar    1  LIG1        0.2574
     13 N           2.9549   -0.2383   -3.9572 N.ar    1  LIG1       -0.2325
     14 C           2.3644   -6.0686   -1.6200 C.ar    1  LIG1       -0.0523
     15 C           4.1235   -4.5368   -2.1370 C.ar    1  LIG1       -0.0523
     16 C          -0.2912   -3.7478   -3.7526 C.ar    1  LIG1        0.0284
     17 N           4.0381    2.3166   -3.3275 N.ar    1  LIG1       -0.2137
     18 O           5.1327    1.3026   -1.4835 O.3     1  LIG1       -0.4773
     19 C           2.6951    0.8689   -4.6911 C.ar    1  LIG1        0.0510
     20 C           3.3014   -7.0494   -1.2725 C.ar    1  LIG1       -0.0579
     21 C           5.0652   -5.5003   -1.7374 C.ar    1  LIG1       -0.0579
     22 C           3.2122    2.1266   -4.3864 C.ar    1  LIG1        0.0602
     23 C           5.5804    2.6301   -1.2326 C.3     1  LIG1        0.0805
     24 C           4.6674   -6.7728   -1.3087 C.ar    1  LIG1       -0.0465
     25 C           2.8645    3.3144   -5.2280 C.3     1  LIG1       -0.0208
     26 C           5.7075   -7.8307   -0.9935 C.3     1  LIG1       -0.0174
     27 C           5.8432   -8.3453    0.4580 C.3     1  LIG1        0.0085
     28 C           6.2960   -7.2272    1.4328 C.2     1  LIG1        0.0477
     29 C           4.5926   -9.0874    0.9435 C.3     1  LIG1       -0.0544
     30 C           7.0298   -9.3327    0.5141 C.3     1  LIG1       -0.0544
     31 O           7.1580   -6.4186    0.9759 O.co2   1  LIG1       -0.5493
     32 O           5.8138   -7.2883    2.6000 O.co2   1  LIG1       -0.5493
     33 H           4.8056   -1.1625   -1.4971 H       1  LIG1        0.1754
     34 H           0.2996   -0.7273   -2.4382 H       1  LIG1        0.0638
     35 H          -1.3640   -1.8916   -3.8533 H       1  LIG1        0.0633
     36 H           1.3083   -6.3270   -1.5689 H       1  LIG1        0.0624
     37 H           4.5024   -3.5989   -2.5247 H       1  LIG1        0.0624
     38 H          -0.9880   -4.3122   -4.3643 H       1  LIG1        0.0830
     39 H           2.0397    0.7158   -5.5426 H       1  LIG1        0.0848
     40 H           2.9446   -8.0324   -0.9822 H       1  LIG1        0.0620
     41 H           6.1258   -5.2544   -1.7696 H       1  LIG1        0.0620
     42 H           6.2112    2.6068   -0.3389 H       1  LIG1        0.0660
     43 H           4.7398    3.3028   -1.0294 H       1  LIG1        0.0660
     44 H           6.1921    3.0049   -2.0609 H       1  LIG1        0.0660
     45 H           3.2830    4.2311   -4.8002 H       1  LIG1        0.0293
     46 H           1.7777    3.4344   -5.2848 H       1  LIG1        0.0293
     47 H           3.2652    3.1925   -6.2388 H       1  LIG1        0.0293
     48 H           6.6841   -7.4594   -1.3362 H       1  LIG1        0.0322
     49 H           5.5005   -8.6839   -1.6561 H       1  LIG1        0.0322
     50 H           4.2510   -9.8161    0.1993 H       1  LIG1        0.0239
     51 H           3.7697   -8.3998    1.1610 H       1  LIG1        0.0239
     52 H           4.7871   -9.6424    1.8691 H       1  LIG1        0.0239
     53 H           6.8480  -10.2002   -0.1307 H       1  LIG1        0.0239
     54 H           7.1961   -9.7058    1.5322 H       1  LIG1        0.0239
     55 H           7.9662   -8.8679    0.1831 H       1  LIG1        0.0239
@<TRIPOS>BOND
     1     1     5    2
     2     1     4    2
     3     1     3    1
     4     1     2    1
     5     2     6   ar
     6     2     7   ar
     7     3     8    1
     8     6    10   ar
     9     6     9    1
    10     7    11   ar
    11     8    12   ar
    12     8    13   ar
    13     9    14   ar
    14     9    15   ar
    15    10    16   ar
    16    11    16   ar
    17    12    17   ar
    18    12    18    1
    19    13    19   ar
    20    14    20   ar
    21    15    21   ar
    22    17    22   ar
    23    18    23    1
    24    19    22   ar
    25    20    24   ar
    26    21    24   ar
    27    22    25    1
    28    24    26    1
    29    26    27    1
    30    27    30    1
    31    27    29    1
    32    27    28    1
    33    28    32   ar
    34    28    31   ar
    35     3    33    1
    36     7    34    1
    37    11    35    1
    38    14    36    1
    39    15    37    1
    40    16    38    1
    41    19    39    1
    42    20    40    1
    43    21    41    1
    44    23    42    1
    45    23    43    1
    46    23    44    1
    47    25    45    1
    48    25    46    1
    49    25    47    1
    50    26    48    1
    51    26    49    1
    52    29    50    1
    53    29    51    1
    54    29    52    1
    55    30    53    1
    56    30    54    1
    57    30    55    1
@<TRIPOS>MOLECULE
01178588C
 55 57 0 0 0
SMALL
GASTEIGER

@<TRIPOS>ATOM
      1 S           2.5475   -1.6195   -1.0442 S.O2    1  LIG1        0.0756
      2 C           1.4811   -2.5270   -2.1216 C.ar    1  LIG1        0.1344
      3 N           3.8269   -1.0918   -2.0105 N.pl3   1  LIG1       -0.1951
      4 O           3.1013   -2.5240   -0.0615 O.2     1  LIG1       -0.1499
      5 O           1.8118   -0.4552   -0.5821 O.2     1  LIG1       -0.1499
      6 C           1.6920   -3.8505   -2.5047 C.ar    1  LIG1        0.0975
      7 C           0.2874   -1.8864   -2.5145 C.ar    1  LIG1       -0.0315
      8 C           3.5937    0.1021   -2.7351 C.ar    1  LIG1        0.2006
      9 C           2.8247   -4.7350   -2.1564 C.ar    1  LIG1        0.0023
     10 N           0.7589   -4.4951   -3.2753 N.ar    1  LIG1       -0.2530
     11 C          -0.6441   -2.5509   -3.2983 C.ar    1  LIG1       -0.0417
     12 C           2.8588    0.1763   -3.9255 C.ar    1  LIG1        0.2574
     13 N           4.0727    1.1952   -2.1074 N.ar    1  LIG1       -0.2325
     14 C           2.5712   -6.0449   -1.7073 C.ar    1  LIG1       -0.0523
     15 C           4.1698   -4.3738   -2.3138 C.ar    1  LIG1       -0.0523
     16 C          -0.3624   -3.8492   -3.6534 C.ar    1  LIG1        0.0284
     17 N           2.5383    1.3623   -4.5000 N.ar    1  LIG1       -0.2137
     18 O           2.4904   -0.9982   -4.5447 O.3     1  LIG1       -0.4773
     19 C           3.7422    2.3740   -2.6871 C.ar    1  LIG1        0.0510
     20 C           3.6090   -6.9314   -1.3915 C.ar    1  LIG1       -0.0579
     21 C           5.2112   -5.2412   -1.9463 C.ar    1  LIG1       -0.0579
     22 C           2.9804    2.4676   -3.8510 C.ar    1  LIG1        0.0602
     23 C           1.8328   -0.8086   -5.7914 C.3     1  LIG1        0.0805
     24 C           4.9457   -6.5336   -1.4864 C.ar    1  LIG1       -0.0465
     25 C           2.6102    3.8038   -4.4132 C.3     1  LIG1       -0.0208
     26 C           6.0412   -7.4808   -1.0379 C.3     1  LIG1       -0.0174
     27 C           7.0384   -8.0323   -2.0831 C.3     1  LIG1        0.0085
     28 C           6.3215   -8.8531   -3.1875 C.2     1  LIG1        0.0477
     29 C           7.9565   -6.9430   -2.6495 C.3     1  LIG1       -0.0544
     30 C           7.9295   -9.0880   -1.3920 C.3     1  LIG1       -0.0544
     31 O           5.4162   -9.6388   -2.7829 O.co2   1  LIG1       -0.5493
     32 O           6.7644   -8.6984   -4.3622 O.co2   1  LIG1       -0.5493
     33 H           4.6753   -1.0509   -1.4482 H       1  LIG1        0.1754
     34 H           0.0787   -0.8619   -2.2112 H       1  LIG1        0.0638
     35 H          -1.5619   -2.0704   -3.6129 H       1  LIG1        0.0633
     36 H           1.5473   -6.4005   -1.6196 H       1  LIG1        0.0624
     37 H           4.4411   -3.4171   -2.7430 H       1  LIG1        0.0624
     38 H          -1.0480   -4.4334   -4.2609 H       1  LIG1        0.0830
     39 H           4.1010    3.2596   -2.1721 H       1  LIG1        0.0848
     40 H           3.3667   -7.9458   -1.0808 H       1  LIG1        0.0620
     41 H           6.2353   -4.8933   -2.0372 H       1  LIG1        0.0620
     42 H           1.6043   -1.7971   -6.2023 H       1  LIG1        0.0660
     43 H           2.4792   -0.2913   -6.5082 H       1  LIG1        0.0660
     44 H           0.8845   -0.2754   -5.6614 H       1  LIG1        0.0660
     45 H           2.0249    3.6909   -5.3322 H       1  LIG1        0.0293
     46 H           3.5097    4.3806   -4.6504 H       1  LIG1        0.0293
     47 H           2.0047    4.3613   -3.6922 H       1  LIG1        0.0293
     48 H           5.5659   -8.3255   -0.5203 H       1  LIG1        0.0322
     49 H           6.6020   -6.9642   -0.2448 H       1  LIG1        0.0322
     50 H           8.3662   -6.3161   -1.8510 H       1  LIG1        0.0239
     51 H           7.4327   -6.2985   -3.3627 H       1  LIG1        0.0239
     52 H           8.8064   -7.3762   -3.1886 H       1  LIG1        0.0239
     53 H           8.5121   -8.6376   -0.5806 H       1  LIG1        0.0239
     54 H           8.6362   -9.5412   -2.0972 H       1  LIG1        0.0239
     55 H           7.3390   -9.9041   -0.9570 H       1  LIG1        0.0239
@<TRIPOS>BOND
     1     1     5    2
     2     1     4    2
     3     1     3    1
     4     1     2    1
     5     2     6   ar
     6     2     7   ar
     7     3     8    1
     8     6    10   ar
     9     6     9    1
    10     7    11   ar
    11     8    12   ar
    12     8    13   ar
    13     9    14   ar
    14     9    15   ar
    15    10    16   ar
    16    11    16   ar
    17    12    17   ar
    18    12    18    1
    19    13    19   ar
    20    14    20   ar
    21    15    21   ar
    22    17    22   ar
    23    18    23    1
    24    19    22   ar
    25    20    24   ar
    26    21    24   ar
    27    22    25    1
    28    24    26    1
    29    26    27    1
    30    27    30    1
    31    27    29    1
    32    27    28    1
    33    28    32   ar
    34    28    31   ar
    35     3    33    1
    36     7    34    1
    37    11    35    1
    38    14    36    1
    39    15    37    1
    40    16    38    1
    41    19    39    1
    42    20    40    1
    43    21    41    1
    44    23    42    1
    45    23    43    1
    46    23    44    1
    47    25    45    1
    48    25    46    1
    49    25    47    1
    50    26    48    1
    51    26    49    1
    52    29    50    1
    53    29    51    1
    54    29    52    1
    55    30    53    1
    56    30    54    1
    57    30    55    1
@<TRIPOS>MOLECULE
01178588C
 55 57 0 0 0
SMALL
GASTEIGER

@<TRIPOS>ATOM
      1 S           3.0097   -1.5276   -1.3231 S.O2    1  LIG1        0.0756
      2 C           1.6492   -2.4443   -1.9880 C.ar    1  LIG1        0.1344
      3 N           4.3756   -2.1205   -2.1197 N.pl3   1  LIG1       -0.1951
      4 O           3.0497   -1.7984    0.0953 O.2     1  LIG1       -0.1499
      5 O           2.8386   -0.1639   -1.7887 O.2     1  LIG1       -0.1499
      6 C           1.6368   -3.8184   -2.2023 C.ar    1  LIG1        0.0975
      7 C           0.5175   -1.6863   -2.3566 C.ar    1  LIG1       -0.0315
      8 C           5.5578   -1.4452   -1.6962 C.ar    1  LIG1        0.2006
      9 C           2.7007   -4.8167   -1.9361 C.ar    1  LIG1        0.0023
     10 N           0.5348   -4.4072   -2.7724 N.ar    1  LIG1       -0.2530
     11 C          -0.5889   -2.2981   -2.9279 C.ar    1  LIG1       -0.0417
     12 C           6.2054   -1.6301   -0.4684 C.ar    1  LIG1        0.2574
     13 N           5.9312   -0.5020   -2.5877 N.ar    1  LIG1       -0.2325
     14 C           3.4477   -4.8827   -0.7537 C.ar    1  LIG1       -0.0523
     15 C           2.9308   -5.8404   -2.8796 C.ar    1  LIG1       -0.0523
     16 C          -0.5327   -3.6584   -3.1148 C.ar    1  LIG1        0.0284
     17 N           7.2436   -0.8428   -0.0863 N.ar    1  LIG1       -0.2137
     18 O           5.7920   -2.6531    0.3559 O.3     1  LIG1       -0.4773
     19 C           6.9659    0.2749   -2.1903 C.ar    1  LIG1        0.0510
     20 C           4.4176   -5.8793   -0.5525 C.ar    1  LIG1       -0.0579
     21 C           3.8613   -6.8619   -2.6627 C.ar    1  LIG1       -0.0579
     22 C           7.6131    0.1201   -0.9661 C.ar    1  LIG1        0.0602
     23 C           6.5625   -2.7761    1.5435 C.3     1  LIG1        0.0805
     24 C           4.6381   -6.8798   -1.5060 C.ar    1  LIG1       -0.0465
     25 C           8.7202    1.0447   -0.5677 C.3     1  LIG1       -0.0208
     26 C           5.6408   -7.9899   -1.2439 C.3     1  LIG1       -0.0174
     27 C           6.8605   -8.0918   -2.1915 C.3     1  LIG1        0.0085
     28 C           7.8309   -9.1411   -1.5698 C.2     1  LIG1        0.0477
     29 C           6.5226   -8.7065   -3.5568 C.3     1  LIG1       -0.0544
     30 C           7.5595   -6.7409   -2.3806 C.3     1  LIG1       -0.0544
     31 O           7.2818  -10.1644   -1.0623 O.co2   1  LIG1       -0.5493
     32 O           9.0639   -8.8831   -1.6627 O.co2   1  LIG1       -0.5493
     33 H           4.2981   -1.9381   -3.1203 H       1  LIG1        0.1754
     34 H           0.4942   -0.6087   -2.2002 H       1  LIG1        0.0638
     35 H          -1.4626   -1.7276   -3.2192 H       1  LIG1        0.0633
     36 H           3.2845   -4.1815    0.0591 H       1  LIG1        0.0624
     37 H           2.3451   -5.8728   -3.7972 H       1  LIG1        0.0624
     38 H          -1.3589   -4.2051   -3.5588 H       1  LIG1        0.0830
     39 H           7.2597    1.0501   -2.8910 H       1  LIG1        0.0848
     40 H           4.9869   -5.8799    0.3752 H       1  LIG1        0.0620
     41 H           3.9542   -7.6541   -3.3999 H       1  LIG1        0.0620
     42 H           6.1669   -3.6232    2.1118 H       1  LIG1        0.0660
     43 H           6.4687   -1.8822    2.1700 H       1  LIG1        0.0660
     44 H           7.6131   -2.9890    1.3174 H       1  LIG1        0.0660
     45 H           9.2046    0.6984    0.3510 H       1  LIG1        0.0293
     46 H           8.3235    2.0489   -0.3878 H       1  LIG1        0.0293
     47 H           9.4802    1.0949   -1.3534 H       1  LIG1        0.0293
     48 H           5.0748   -8.9321   -1.2407 H       1  LIG1        0.0322
     49 H           6.0092   -7.8786   -0.2136 H       1  LIG1        0.0322
     50 H           6.0136   -7.9893   -4.2078 H       1  LIG1        0.0239
     51 H           5.8771   -9.5870   -3.4550 H       1  LIG1        0.0239
     52 H           7.4257   -9.0274   -4.0901 H       1  LIG1        0.0239
     53 H           6.8990   -6.0051   -2.8513 H       1  LIG1        0.0239
     54 H           8.4415   -6.8292   -3.0259 H       1  LIG1        0.0239
     55 H           7.8931   -6.3320   -1.4202 H       1  LIG1        0.0239
@<TRIPOS>BOND
     1     1     5    2
     2     1     4    2
     3     1     3    1
     4     1     2    1
     5     2     6   ar
     6     2     7   ar
     7     3     8    1
     8     6    10   ar
     9     6     9    1
    10     7    11   ar
    11     8    12   ar
    12     8    13   ar
    13     9    14   ar
    14     9    15   ar
    15    10    16   ar
    16    11    16   ar
    17    12    17   ar
    18    12    18    1
    19    13    19   ar
    20    14    20   ar
    21    15    21   ar
    22    17    22   ar
    23    18    23    1
    24    19    22   ar
    25    20    24   ar
    26    21    24   ar
    27    22    25    1
    28    24    26    1
    29    26    27    1
    30    27    30    1
    31    27    29    1
    32    27    28    1
    33    28    32   ar
    34    28    31   ar
    35     3    33    1
    36     7    34    1
    37    11    35    1
    38    14    36    1
    39    15    37    1
    40    16    38    1
    41    19    39    1
    42    20    40    1
    43    21    41    1
    44    23    42    1
    45    23    43    1
    46    23    44    1
    47    25    45    1
    48    25    46    1
    49    25    47    1
    50    26    48    1
    51    26    49    1
    52    29    50    1
    53    29    51    1
    54    29    52    1
    55    30    53    1
    56    30    54    1
    57    30    55    1
@<TRIPOS>MOLECULE
01178588C
 55 57 0 0 0
SMALL
GASTEIGER

@<TRIPOS>ATOM
      1 S           2.9533   -1.6638   -1.2261 S.O2    1  LIG1        0.0756
      2 C           1.5846   -2.4673   -2.0017 C.ar    1  LIG1        0.1344
      3 N           2.4923   -0.0274   -1.1675 N.pl3   1  LIG1       -0.1951
      4 O           4.1105   -1.8183   -2.0753 O.2     1  LIG1       -0.1499
      5 O           2.9402   -2.0478    0.1702 O.2     1  LIG1       -0.1499
      6 C           1.5943   -3.8402   -2.2543 C.ar    1  LIG1        0.0975
      7 C           0.4806   -1.7056   -2.4210 C.ar    1  LIG1       -0.0315
      8 C           3.4663    0.8666   -1.6789 C.ar    1  LIG1        0.2006
      9 C           2.6710   -4.8115   -1.9587 C.ar    1  LIG1        0.0023
     10 N           0.5345   -4.4330   -2.8907 N.ar    1  LIG1       -0.2530
     11 C          -0.5855   -2.3199   -3.0666 C.ar    1  LIG1       -0.0417
     12 C           3.7766    1.0274   -3.0342 C.ar    1  LIG1        0.2574
     13 N           4.0565    1.5768   -0.6961 N.ar    1  LIG1       -0.2325
     14 C           3.2238   -4.9966   -0.6836 C.ar    1  LIG1       -0.0523
     15 C           3.1151   -5.6794   -2.9750 C.ar    1  LIG1       -0.0523
     16 C          -0.5143   -3.6790   -3.2750 C.ar    1  LIG1        0.0284
     17 N           4.7108    1.9201   -3.4486 N.ar    1  LIG1       -0.2137
     18 O           3.0349    0.3318   -3.9691 O.3     1  LIG1       -0.4773
     19 C           5.0148    2.4335   -1.1208 C.ar    1  LIG1        0.0510
     20 C           4.2155   -5.9612   -0.4482 C.ar    1  LIG1       -0.0579
     21 C           4.0757   -6.6682   -2.7354 C.ar    1  LIG1       -0.0579
     22 C           5.3433    2.6089   -2.4648 C.ar    1  LIG1        0.0602
     23 C           3.6369    0.3424   -5.2588 C.3     1  LIG1        0.0805
     24 C           4.6511   -6.8092   -1.4717 C.ar    1  LIG1       -0.0465
     25 C           6.4224    3.5674   -2.8604 C.3     1  LIG1       -0.0208
     26 C           5.6792   -7.8916   -1.1970 C.3     1  LIG1       -0.0174
     27 C           7.1064   -7.6604   -1.7458 C.3     1  LIG1        0.0085
     28 C           8.0004   -8.8349   -1.2444 C.2     1  LIG1        0.0477
     29 C           7.1877   -7.7874   -3.2725 C.3     1  LIG1       -0.0544
     30 C           7.6806   -6.3109   -1.2997 C.3     1  LIG1       -0.0544
     31 O           7.4388   -9.9671   -1.1778 O.co2   1  LIG1       -0.5493
     32 O           9.2041   -8.5461   -0.9854 O.co2   1  LIG1       -0.5493
     33 H           2.3679    0.1948   -0.1783 H       1  LIG1        0.1754
     34 H           0.4386   -0.6313   -2.2693 H       1  LIG1        0.0638
     35 H          -1.4436   -1.7501   -3.4043 H       1  LIG1        0.0633
     36 H           2.8760   -4.4207    0.1686 H       1  LIG1        0.0624
     37 H           2.6840   -5.6089   -3.9720 H       1  LIG1        0.0624
     38 H          -1.3124   -4.2191   -3.7756 H       1  LIG1        0.0830
     39 H           5.5235    2.9862   -0.3370 H       1  LIG1        0.0848
     40 H           4.6315   -6.0621    0.5523 H       1  LIG1        0.0620
     41 H           4.3606   -7.3394   -3.5416 H       1  LIG1        0.0620
     42 H           3.0501   -0.3167   -5.9057 H       1  LIG1        0.0660
     43 H           4.6611   -0.0458   -5.2271 H       1  LIG1        0.0660
     44 H           3.6106    1.3460   -5.6974 H       1  LIG1        0.0660
     45 H           6.5001    3.6384   -3.9499 H       1  LIG1        0.0293
     46 H           7.3872    3.2306   -2.4688 H       1  LIG1        0.0293
     47 H           6.2055    4.5665   -2.4696 H       1  LIG1        0.0293
     48 H           5.2617   -8.8310   -1.5865 H       1  LIG1        0.0322
     49 H           5.7372   -8.0429   -0.1092 H       1  LIG1        0.0322
     50 H           6.7215   -6.9323   -3.7721 H       1  LIG1        0.0239
     51 H           6.6910   -8.6977   -3.6282 H       1  LIG1        0.0239
     52 H           8.2275   -7.8295   -3.6187 H       1  LIG1        0.0239
     53 H           7.0856   -5.4729   -1.6778 H       1  LIG1        0.0239
     54 H           8.7020   -6.1622   -1.6691 H       1  LIG1        0.0239
     55 H           7.7129   -6.2393   -0.2067 H       1  LIG1        0.0239
@<TRIPOS>BOND
     1     1     5    2
     2     1     4    2
     3     1     3    1
     4     1     2    1
     5     2     6   ar
     6     2     7   ar
     7     3     8    1
     8     6    10   ar
     9     6     9    1
    10     7    11   ar
    11     8    12   ar
    12     8    13   ar
    13     9    14   ar
    14     9    15   ar
    15    10    16   ar
    16    11    16   ar
    17    12    17   ar
    18    12    18    1
    19    13    19   ar
    20    14    20   ar
    21    15    21   ar
    22    17    22   ar
    23    18    23    1
    24    19    22   ar
    25    20    24   ar
    26    21    24   ar
    27    22    25    1
    28    24    26    1
    29    26    27    1
    30    27    30    1
    31    27    29    1
    32    27    28    1
    33    28    32   ar
    34    28    31   ar
    35     3    33    1
    36     7    34    1
    37    11    35    1
    38    14    36    1
    39    15    37    1
    40    16    38    1
    41    19    39    1
    42    20    40    1
    43    21    41    1
    44    23    42    1
    45    23    43    1
    46    23    44    1
    47    25    45    1
    48    25    46    1
    49    25    47    1
    50    26    48    1
    51    26    49    1
    52    29    50    1
    53    29    51    1
    54    29    52    1
    55    30    53    1
    56    30    54    1
    57    30    55    1
@<TRIPOS>MOLECULE
01178588C
 55 57 0 0 0
SMALL
GASTEIGER

@<TRIPOS>ATOM
      1 S           2.9505   -1.6718   -1.1154 S.O2    1  LIG1        0.0756
      2 C           1.6129   -2.4883   -1.9291 C.ar    1  LIG1        0.1344
      3 N           2.6136   -0.0037   -1.2475 N.pl3   1  LIG1       -0.1951
      4 O           4.1268   -1.8396   -1.9440 O.2     1  LIG1       -0.1499
      5 O           2.9357   -2.0270    0.2869 O.2     1  LIG1       -0.1499
      6 C           1.6605   -3.8488   -2.2473 C.ar    1  LIG1        0.0975
      7 C           0.5016   -1.7319   -2.3420 C.ar    1  LIG1       -0.0315
      8 C           2.1743    0.5642   -0.0164 C.ar    1  LIG1        0.2006
      9 C           2.7270   -4.8412   -1.9432 C.ar    1  LIG1        0.0023
     10 N           0.6297   -4.4225   -2.9500 N.ar    1  LIG1       -0.2530
     11 C          -0.5320   -2.3294   -3.0512 C.ar    1  LIG1       -0.0417
     12 C           3.0745    1.0100    0.9592 C.ar    1  LIG1        0.2574
     13 N           0.8441    0.4934    0.1988 N.ar    1  LIG1       -0.2325
     14 C           3.3744   -4.9474   -0.7049 C.ar    1  LIG1       -0.0523
     15 C           3.0653   -5.8185   -2.9053 C.ar    1  LIG1       -0.0523
     16 C          -0.4226   -3.6712   -3.3298 C.ar    1  LIG1        0.0284
     17 N           2.6697    1.4557    2.1743 N.ar    1  LIG1       -0.2137
     18 O           4.4171    1.0344    0.6348 O.3     1  LIG1       -0.4773
     19 C           0.4515    0.9074    1.4298 C.ar    1  LIG1        0.0510
     20 C           4.3427   -5.9313   -0.4572 C.ar    1  LIG1       -0.0579
     21 C           3.9976   -6.8333   -2.6476 C.ar    1  LIG1       -0.0579
     22 C           1.3338    1.3800    2.4016 C.ar    1  LIG1        0.0602
     23 C           5.2454    0.9727    1.7889 C.3     1  LIG1        0.0805
     24 C           4.6487   -6.8969   -1.4152 C.ar    1  LIG1       -0.0465
     25 C           0.8297    1.8073    3.7447 C.3     1  LIG1       -0.0208
     26 C           5.6460   -8.0018   -1.1171 C.3     1  LIG1       -0.0174
     27 C           5.1261   -9.1719   -0.2476 C.3     1  LIG1        0.0085
     28 C           6.3329  -10.1519   -0.1757 C.2     1  LIG1        0.0477
     29 C           4.8262   -8.7610    1.2001 C.3     1  LIG1       -0.0544
     30 C           3.8882   -9.8422   -0.8555 C.3     1  LIG1       -0.0544
     31 O           7.3662   -9.7076    0.4069 O.co2   1  LIG1       -0.5493
     32 O           6.1637  -11.2861   -0.7084 O.co2   1  LIG1       -0.5493
     33 H           3.4743    0.4261   -1.5925 H       1  LIG1        0.1754
     34 H           0.4256   -0.6695   -2.1291 H       1  LIG1        0.0638
     35 H          -1.3917   -1.7591   -3.3803 H       1  LIG1        0.0633
     36 H           3.1174   -4.3033    0.1290 H       1  LIG1        0.0624
     37 H           2.5668   -5.8165   -3.8742 H       1  LIG1        0.0624
     38 H          -1.1921   -4.2007   -3.8849 H       1  LIG1        0.0830
     39 H          -0.6154    0.8405    1.6219 H       1  LIG1        0.0848
     40 H           4.8367   -5.9553    0.5119 H       1  LIG1        0.0620
     41 H           4.1953   -7.5837   -3.4091 H       1  LIG1        0.0620
     42 H           6.2799    0.8464    1.4530 H       1  LIG1        0.0660
     43 H           4.9929    0.1083    2.4173 H       1  LIG1        0.0660
     44 H           5.1933    1.9028    2.3643 H       1  LIG1        0.0660
     45 H           1.6492    2.1738    4.3705 H       1  LIG1        0.0293
     46 H           0.3605    0.9617    4.2586 H       1  LIG1        0.0293
     47 H           0.0970    2.6131    3.6364 H       1  LIG1        0.0293
     48 H           6.5231   -7.5312   -0.6532 H       1  LIG1        0.0322
     49 H           6.0184   -8.3986   -2.0743 H       1  LIG1        0.0322
     50 H           3.9047   -8.1740    1.2685 H       1  LIG1        0.0239
     51 H           5.6352   -8.1607    1.6311 H       1  LIG1        0.0239
     52 H           4.6962   -9.6410    1.8410 H       1  LIG1        0.0239
     53 H           3.0220   -9.1723   -0.8490 H       1  LIG1        0.0239
     54 H           3.6060  -10.7384   -0.2905 H       1  LIG1        0.0239
     55 H           4.0669  -10.1493   -1.8918 H       1  LIG1        0.0239
@<TRIPOS>BOND
     1     1     5    2
     2     1     4    2
     3     1     3    1
     4     1     2    1
     5     2     6   ar
     6     2     7   ar
     7     3     8    1
     8     6    10   ar
     9     6     9    1
    10     7    11   ar
    11     8    12   ar
    12     8    13   ar
    13     9    14   ar
    14     9    15   ar
    15    10    16   ar
    16    11    16   ar
    17    12    17   ar
    18    12    18    1
    19    13    19   ar
    20    14    20   ar
    21    15    21   ar
    22    17    22   ar
    23    18    23    1
    24    19    22   ar
    25    20    24   ar
    26    21    24   ar
    27    22    25    1
    28    24    26    1
    29    26    27    1
    30    27    30    1
    31    27    29    1
    32    27    28    1
    33    28    32   ar
    34    28    31   ar
    35     3    33    1
    36     7    34    1
    37    11    35    1
    38    14    36    1
    39    15    37    1
    40    16    38    1
    41    19    39    1
    42    20    40    1
    43    21    41    1
    44    23    42    1
    45    23    43    1
    46    23    44    1
    47    25    45    1
    48    25    46    1
    49    25    47    1
    50    26    48    1
    51    26    49    1
    52    29    50    1
    53    29    51    1
    54    29    52    1
    55    30    53    1
    56    30    54    1
    57    30    55    1
@<TRIPOS>MOLECULE
01178588C
 55 57 0 0 0
SMALL
GASTEIGER

@<TRIPOS>ATOM
      1 S           2.9587   -1.6909   -1.0993 S.O2    1  LIG1        0.0756
      2 C           1.5808   -2.4943   -1.8545 C.ar    1  LIG1        0.1344
      3 N           2.6657   -0.0301   -1.3803 N.pl3   1  LIG1       -0.1951
      4 O           4.1300   -1.9592   -1.9077 O.2     1  LIG1       -0.1499
      5 O           2.9104   -1.9613    0.3206 O.2     1  LIG1       -0.1499
      6 C           1.6215   -3.8434   -2.2115 C.ar    1  LIG1        0.0975
      7 C           0.4471   -1.7314   -2.1835 C.ar    1  LIG1       -0.0315
      8 C           2.8104    0.7353   -0.1856 C.ar    1  LIG1        0.2006
      9 C           2.6925   -4.8311   -1.9313 C.ar    1  LIG1        0.0023
     10 N           0.5774   -4.4004   -2.9044 N.ar    1  LIG1       -0.2530
     11 C          -0.6033   -2.3118   -2.8830 C.ar    1  LIG1       -0.0417
     12 C           4.0603    1.1885    0.2571 C.ar    1  LIG1        0.2574
     13 N           1.6861    0.8571    0.5488 N.ar    1  LIG1       -0.2325
     14 C           3.3128   -4.9708   -0.6805 C.ar    1  LIG1       -0.0523
     15 C           3.0647   -5.7582   -2.9252 C.ar    1  LIG1       -0.0523
     16 C          -0.4894   -3.6408   -3.2250 C.ar    1  LIG1        0.0284
     17 N           4.2258    1.8087    1.4486 N.ar    1  LIG1       -0.2137
     18 O           5.1328    1.0319   -0.6006 O.3     1  LIG1       -0.4773
     19 C           1.8688    1.4427    1.7579 C.ar    1  LIG1        0.0510
     20 C           4.2995   -5.9421   -0.4533 C.ar    1  LIG1       -0.0579
     21 C           4.0183   -6.7563   -2.6898 C.ar    1  LIG1       -0.0579
     22 C           3.1056    1.9116    2.2076 C.ar    1  LIG1        0.0602
     23 C           6.3859    1.2331    0.0438 C.3     1  LIG1        0.0805
     24 C           4.6625   -6.8470   -1.4555 C.ar    1  LIG1       -0.0465
     25 C           3.2396    2.5219    3.5681 C.3     1  LIG1       -0.0208
     26 C           5.6890   -7.9307   -1.1807 C.3     1  LIG1       -0.0174
     27 C           7.1090   -7.7212   -1.7564 C.3     1  LIG1        0.0085
     28 C           8.0504   -8.8725   -1.2826 C.2     1  LIG1        0.0477
     29 C           7.1313   -7.7739   -3.2899 C.3     1  LIG1       -0.0544
     30 C           7.7371   -6.4123   -1.2616 C.3     1  LIG1       -0.0544
     31 O           7.5211   -9.7698   -0.5664 O.co2   1  LIG1       -0.5493
     32 O           9.2537   -8.7954   -1.6688 O.co2   1  LIG1       -0.5493
     33 H           3.3903    0.2420   -2.0505 H       1  LIG1        0.1754
     34 H           0.3719   -0.6825   -1.9080 H       1  LIG1        0.0638
     35 H          -1.4807   -1.7390   -3.1598 H       1  LIG1        0.0633
     36 H           3.0261   -4.3527    0.1644 H       1  LIG1        0.0624
     37 H           2.5842   -5.7264   -3.9015 H       1  LIG1        0.0624
     38 H          -1.2702   -4.1525   -3.7801 H       1  LIG1        0.0830
     39 H           0.9791    1.5176    2.3753 H       1  LIG1        0.0848
     40 H           4.7691   -6.0032    0.5265 H       1  LIG1        0.0620
     41 H           4.2470   -7.4700   -3.4773 H       1  LIG1        0.0620
     42 H           7.1723    1.0092   -0.6833 H       1  LIG1        0.0660
     43 H           6.5106    0.5519    0.8926 H       1  LIG1        0.0660
     44 H           6.5076    2.2764    0.3547 H       1  LIG1        0.0660
     45 H           4.2502    2.9154    3.7197 H       1  LIG1        0.0293
     46 H           3.0474    1.7695    4.3393 H       1  LIG1        0.0293
     47 H           2.5330    3.3488    3.6882 H       1  LIG1        0.0293
     48 H           5.2718   -8.8797   -1.5470 H       1  LIG1        0.0322
     49 H           5.7535   -8.0566   -0.0901 H       1  LIG1        0.0322
     50 H           6.6045   -6.9217   -3.7301 H       1  LIG1        0.0239
     51 H           6.6628   -8.6938   -3.6589 H       1  LIG1        0.0239
     52 H           8.1506   -7.7468   -3.6917 H       1  LIG1        0.0239
     53 H           7.1693   -5.5403   -1.6033 H       1  LIG1        0.0239
     54 H           8.7622   -6.2844   -1.6282 H       1  LIG1        0.0239
     55 H           7.7770   -6.3838   -0.1668 H       1  LIG1        0.0239
@<TRIPOS>BOND
     1     1     5    2
     2     1     4    2
     3     1     3    1
     4     1     2    1
     5     2     6   ar
     6     2     7   ar
     7     3     8    1
     8     6    10   ar
     9     6     9    1
    10     7    11   ar
    11     8    12   ar
    12     8    13   ar
    13     9    14   ar
    14     9    15   ar
    15    10    16   ar
    16    11    16   ar
    17    12    17   ar
    18    12    18    1
    19    13    19   ar
    20    14    20   ar
    21    15    21   ar
    22    17    22   ar
    23    18    23    1
    24    19    22   ar
    25    20    24   ar
    26    21    24   ar
    27    22    25    1
    28    24    26    1
    29    26    27    1
    30    27    30    1
    31    27    29    1
    32    27    28    1
    33    28    32   ar
    34    28    31   ar
    35     3    33    1
    36     7    34    1
    37    11    35    1
    38    14    36    1
    39    15    37    1
    40    16    38    1
    41    19    39    1
    42    20    40    1
    43    21    41    1
    44    23    42    1
    45    23    43    1
    46    23    44    1
    47    25    45    1
    48    25    46    1
    49    25    47    1
    50    26    48    1
    51    26    49    1
    52    29    50    1
    53    29    51    1
    54    29    52    1
    55    30    53    1
    56    30    54    1
    57    30    55    1
@<TRIPOS>MOLECULE
01178588C
 55 57 0 0 0
SMALL
GASTEIGER

@<TRIPOS>ATOM
      1 S           2.7169   -1.5606   -1.1308 S.O2    1  LIG1        0.0756
      2 C           1.6227   -2.4579   -2.1891 C.ar    1  LIG1        0.1344
      3 N           4.0133   -1.1439   -2.1278 N.pl3   1  LIG1       -0.1951
      4 O           3.2259   -2.4451   -0.1107 O.2     1  LIG1       -0.1499
      5 O           2.0525   -0.3330   -0.7280 O.2     1  LIG1       -0.1499
      6 C           1.7417   -3.8138   -2.4889 C.ar    1  LIG1        0.0975
      7 C           0.4960   -1.7523   -2.6591 C.ar    1  LIG1       -0.0315
      8 C           3.7778   -0.0049   -2.9392 C.ar    1  LIG1        0.2006
      9 C           2.7874   -4.7768   -2.0659 C.ar    1  LIG1        0.0023
     10 N           0.7805   -4.4281   -3.2571 N.ar    1  LIG1       -0.2530
     11 C          -0.4687   -2.3888   -3.4249 C.ar    1  LIG1       -0.0417
     12 C           4.1682    1.2848   -2.5563 C.ar    1  LIG1        0.2574
     13 N           3.0370   -0.2367   -4.0420 N.ar    1  LIG1       -0.2325
     14 C           2.4036   -6.0666   -1.6450 C.ar    1  LIG1       -0.0523
     15 C           4.1643   -4.5297   -2.1336 C.ar    1  LIG1       -0.0523
     16 C          -0.2809   -3.7229   -3.6972 C.ar    1  LIG1        0.0284
     17 N           3.8596    2.3832   -3.2919 N.ar    1  LIG1       -0.2137
     18 O           4.9225    1.4161   -1.4060 O.3     1  LIG1       -0.4773
     19 C           2.7285    0.8646   -4.7667 C.ar    1  LIG1        0.0510
     20 C           3.3382   -7.0505   -1.2993 C.ar    1  LIG1       -0.0579
     21 C           5.1033   -5.4963   -1.7338 C.ar    1  LIG1       -0.0579
     22 C           3.1217    2.1525   -4.4061 C.ar    1  LIG1        0.0602
     23 C           5.0481    2.7684   -0.9809 C.3     1  LIG1        0.0805
     24 C           4.7036   -6.7717   -1.3146 C.ar    1  LIG1       -0.0465
     25 C           2.7318    3.3287   -5.2457 C.3     1  LIG1       -0.0208
     26 C           5.7428   -7.8259   -0.9832 C.3     1  LIG1       -0.0174
     27 C           5.8295   -8.3726    0.4613 C.3     1  LIG1        0.0085
     28 C           6.2135   -7.2645    1.4763 C.2     1  LIG1        0.0477
     29 C           4.5789   -9.1557    0.8774 C.3     1  LIG1       -0.0544
     30 C           7.0358   -9.3341    0.5467 C.3     1  LIG1       -0.0544
     31 O           7.0954   -6.4434    1.0820 O.co2   1  LIG1       -0.5493
     32 O           5.6642   -7.3458    2.6127 O.co2   1  LIG1       -0.5493
     33 H           4.8589   -1.0997   -1.5574 H       1  LIG1        0.1754
     34 H           0.3648   -0.6984   -2.4224 H       1  LIG1        0.0638
     35 H          -1.3413   -1.8591   -3.7863 H       1  LIG1        0.0633
     36 H           1.3475   -6.3271   -1.6030 H       1  LIG1        0.0624
     37 H           4.5469   -3.5876   -2.5071 H       1  LIG1        0.0624
     38 H          -0.9982   -4.2872   -4.2850 H       1  LIG1        0.0830
     39 H           2.1390    0.6806   -5.6595 H       1  LIG1        0.0848
     40 H           2.9780   -8.0361   -1.0232 H       1  LIG1        0.0620
     41 H           6.1635   -5.2477   -1.7536 H       1  LIG1        0.0620
     42 H           5.5818    2.7698   -0.0258 H       1  LIG1        0.0660
     43 H           4.0672    3.2278   -0.8146 H       1  LIG1        0.0660
     44 H           5.6396    3.3534   -1.6937 H       1  LIG1        0.0660
     45 H           3.0844    4.2626   -4.7960 H       1  LIG1        0.0293
     46 H           1.6423    3.3864   -5.3350 H       1  LIG1        0.0293
     47 H           3.1697    3.2435   -6.2449 H       1  LIG1        0.0293
     48 H           6.7277   -7.4353   -1.2771 H       1  LIG1        0.0322
     49 H           5.5722   -8.6656   -1.6726 H       1  LIG1        0.0322
     50 H           4.2814   -9.8687    0.0999 H       1  LIG1        0.0239
     51 H           3.7327   -8.4940    1.0856 H       1  LIG1        0.0239
     52 H           4.7521   -9.7341    1.7931 H       1  LIG1        0.0239
     53 H           6.8997  -10.1928   -0.1206 H       1  LIG1        0.0239
     54 H           7.1694   -9.7226    1.5639 H       1  LIG1        0.0239
     55 H           7.9739   -8.8427    0.2628 H       1  LIG1        0.0239
@<TRIPOS>BOND
     1     1     5    2
     2     1     4    2
     3     1     3    1
     4     1     2    1
     5     2     6   ar
     6     2     7   ar
     7     3     8    1
     8     6    10   ar
     9     6     9    1
    10     7    11   ar
    11     8    12   ar
    12     8    13   ar
    13     9    14   ar
    14     9    15   ar
    15    10    16   ar
    16    11    16   ar
    17    12    17   ar
    18    12    18    1
    19    13    19   ar
    20    14    20   ar
    21    15    21   ar
    22    17    22   ar
    23    18    23    1
    24    19    22   ar
    25    20    24   ar
    26    21    24   ar
    27    22    25    1
    28    24    26    1
    29    26    27    1
    30    27    30    1
    31    27    29    1
    32    27    28    1
    33    28    32   ar
    34    28    31   ar
    35     3    33    1
    36     7    34    1
    37    11    35    1
    38    14    36    1
    39    15    37    1
    40    16    38    1
    41    19    39    1
    42    20    40    1
    43    21    41    1
    44    23    42    1
    45    23    43    1
    46    23    44    1
    47    25    45    1
    48    25    46    1
    49    25    47    1
    50    26    48    1
    51    26    49    1
    52    29    50    1
    53    29    51    1
    54    29    52    1
    55    30    53    1
    56    30    54    1
    57    30    55    1
@<TRIPOS>MOLECULE
01178588C
 55 57 0 0 0
SMALL
GASTEIGER

@<TRIPOS>ATOM
      1 S           2.7263   -1.6052   -1.0809 S.O2    1  LIG1        0.0756
      2 C           1.6160   -2.4759   -2.1401 C.ar    1  LIG1        0.1344
      3 N           4.0077   -1.1549   -2.0839 N.pl3   1  LIG1       -0.1951
      4 O           3.2694   -2.5115   -0.0913 O.2     1  LIG1       -0.1499
      5 O           2.0697   -0.3936   -0.6271 O.2     1  LIG1       -0.1499
      6 C           1.7204   -3.8326   -2.4430 C.ar    1  LIG1        0.0975
      7 C           0.4913   -1.7609   -2.5965 C.ar    1  LIG1       -0.0315
      8 C           3.7453   -0.0143   -2.8834 C.ar    1  LIG1        0.2006
      9 C           2.8038   -4.7703   -2.0739 C.ar    1  LIG1        0.0023
     10 N           0.7378   -4.4489   -3.1738 N.ar    1  LIG1       -0.2530
     11 C          -0.4877   -2.3946   -3.3475 C.ar    1  LIG1       -0.0417
     12 C           4.0418    1.2871   -2.4575 C.ar    1  LIG1        0.2574
     13 N           3.0763   -0.2637   -4.0245 N.ar    1  LIG1       -0.2325
     14 C           2.4888   -6.0455   -1.5642 C.ar    1  LIG1       -0.0523
     15 C           4.1606   -4.4927   -2.2913 C.ar    1  LIG1       -0.0523
     16 C          -0.3215   -3.7358   -3.6060 C.ar    1  LIG1        0.0284
     17 N           3.7242    2.3813   -3.1935 N.ar    1  LIG1       -0.2137
     18 O           4.7262    1.4390   -1.2666 O.3     1  LIG1       -0.4773
     19 C           2.7592    0.8317   -4.7544 C.ar    1  LIG1        0.0510
     20 C           3.4818   -6.9823   -1.2541 C.ar    1  LIG1       -0.0579
     21 C           5.1595   -5.4098   -1.9373 C.ar    1  LIG1       -0.0579
     22 C           3.0723    2.1310   -4.3569 C.ar    1  LIG1        0.0602
     23 C           4.5245    2.7277   -0.6961 C.3     1  LIG1        0.0805
     24 C           4.8319   -6.6667   -1.4181 C.ar    1  LIG1       -0.0465
     25 C           2.6877    3.2996   -5.2105 C.3     1  LIG1       -0.0208
     26 C           5.9055   -7.6636   -1.0346 C.3     1  LIG1       -0.0174
     27 C           6.5259   -8.5131   -2.1658 C.3     1  LIG1        0.0085
     28 C           5.4958   -9.5431   -2.7028 C.2     1  LIG1        0.0477
     29 C           7.1445   -7.6537   -3.2747 C.3     1  LIG1       -0.0544
     30 C           7.6433   -9.3906   -1.5650 C.3     1  LIG1       -0.0544
     31 O           5.4197   -9.6466   -3.9591 O.co2   1  LIG1       -0.5493
     32 O           4.8788  -10.2100   -1.8206 O.co2   1  LIG1       -0.5493
     33 H           4.8562   -1.0947   -1.5223 H       1  LIG1        0.1754
     34 H           0.3741   -0.7046   -2.3645 H       1  LIG1        0.0638
     35 H          -1.3574   -1.8595   -3.7083 H       1  LIG1        0.0633
     36 H           1.4485   -6.3352   -1.4325 H       1  LIG1        0.0624
     37 H           4.4684   -3.5683   -2.7674 H       1  LIG1        0.0624
     38 H          -1.0518   -4.2986   -4.1796 H       1  LIG1        0.0830
     39 H           2.2345    0.6327   -5.6837 H       1  LIG1        0.0848
     40 H           3.1971   -7.9730   -0.8980 H       1  LIG1        0.0620
     41 H           6.2018   -5.1473   -2.0983 H       1  LIG1        0.0620
     42 H           4.9749    2.7249    0.3006 H       1  LIG1        0.0660
     43 H           3.4572    2.9499   -0.5787 H       1  LIG1        0.0660
     44 H           5.0239    3.5043   -1.2861 H       1  LIG1        0.0660
     45 H           3.0143    4.2399   -4.7537 H       1  LIG1        0.0293
     46 H           1.6002    3.3398   -5.3299 H       1  LIG1        0.0293
     47 H           3.1547    3.2202   -6.1967 H       1  LIG1        0.0293
     48 H           5.4998   -8.3167   -0.2473 H       1  LIG1        0.0322
     49 H           6.7041   -7.1014   -0.5277 H       1  LIG1        0.0322
     50 H           7.8429   -6.9178   -2.8609 H       1  LIG1        0.0239
     51 H           6.3827   -7.1193   -3.8503 H       1  LIG1        0.0239
     52 H           7.7070   -8.2671   -3.9893 H       1  LIG1        0.0239
     53 H           8.4624   -8.7719   -1.1799 H       1  LIG1        0.0239
     54 H           8.0656  -10.0707   -2.3141 H       1  LIG1        0.0239
     55 H           7.2810  -10.0059   -0.7327 H       1  LIG1        0.0239
@<TRIPOS>BOND
     1     1     5    2
     2     1     4    2
     3     1     3    1
     4     1     2    1
     5     2     6   ar
     6     2     7   ar
     7     3     8    1
     8     6    10   ar
     9     6     9    1
    10     7    11   ar
    11     8    12   ar
    12     8    13   ar
    13     9    14   ar
    14     9    15   ar
    15    10    16   ar
    16    11    16   ar
    17    12    17   ar
    18    12    18    1
    19    13    19   ar
    20    14    20   ar
    21    15    21   ar
    22    17    22   ar
    23    18    23    1
    24    19    22   ar
    25    20    24   ar
    26    21    24   ar
    27    22    25    1
    28    24    26    1
    29    26    27    1
    30    27    30    1
    31    27    29    1
    32    27    28    1
    33    28    32   ar
    34    28    31   ar
    35     3    33    1
    36     7    34    1
    37    11    35    1
    38    14    36    1
    39    15    37    1
    40    16    38    1
    41    19    39    1
    42    20    40    1
    43    21    41    1
    44    23    42    1
    45    23    43    1
    46    23    44    1
    47    25    45    1
    48    25    46    1
    49    25    47    1
    50    26    48    1
    51    26    49    1
    52    29    50    1
    53    29    51    1
    54    29    52    1
    55    30    53    1
    56    30    54    1
    57    30    55    1
@<TRIPOS>MOLECULE
01178588C
 55 57 0 0 0
SMALL
GASTEIGER

@<TRIPOS>ATOM
      1 S           2.5607   -1.6426   -1.0731 S.O2    1  LIG1        0.0756
      2 C           1.5254   -2.5354   -2.1937 C.ar    1  LIG1        0.1344
      3 N           3.8970   -1.1675   -1.9951 N.pl3   1  LIG1       -0.1951
      4 O           3.0304   -2.5561   -0.0573 O.2     1  LIG1       -0.1499
      5 O           1.8296   -0.4558   -0.6704 O.2     1  LIG1       -0.1499
      6 C           1.7067   -3.8747   -2.5262 C.ar    1  LIG1        0.0975
      7 C           0.3824   -1.8641   -2.6715 C.ar    1  LIG1       -0.0315
      8 C           3.7182    0.0314   -2.7298 C.ar    1  LIG1        0.2006
      9 C           2.7830   -4.7861   -2.0884 C.ar    1  LIG1        0.0023
     10 N           0.7977   -4.5135   -3.3334 N.ar    1  LIG1       -0.2530
     11 C          -0.5299   -2.5204   -3.4848 C.ar    1  LIG1       -0.0417
     12 C           3.0560    0.1060   -3.9629 C.ar    1  LIG1        0.2574
     13 N           4.1283    1.1288   -2.0639 N.ar    1  LIG1       -0.2325
     14 C           2.4432   -6.0340   -1.5306 C.ar    1  LIG1       -0.0523
     15 C           4.1469   -4.5173   -2.2704 C.ar    1  LIG1       -0.0523
     16 C          -0.2782   -3.8388   -3.7876 C.ar    1  LIG1        0.0284
     17 N           2.7318    1.2917   -4.5388 N.ar    1  LIG1       -0.2137
     18 O           2.7411   -1.0685   -4.6144 O.3     1  LIG1       -0.4773
     19 C           3.7951    2.3072   -2.6423 C.ar    1  LIG1        0.0510
     20 C           3.4172   -6.9688   -1.1664 C.ar    1  LIG1       -0.0579
     21 C           5.1277   -5.4393   -1.8731 C.ar    1  LIG1       -0.0579
     22 C           3.0954    2.3982   -3.8444 C.ar    1  LIG1        0.0602
     23 C           2.2708   -0.8718   -5.9424 C.3     1  LIG1        0.0805
     24 C           4.7733   -6.6793   -1.3299 C.ar    1  LIG1       -0.0465
     25 C           2.7010    3.7319   -4.3976 C.3     1  LIG1       -0.0208
     26 C           5.8358   -7.6995   -0.9747 C.3     1  LIG1       -0.0174
     27 C           6.3000   -7.7607    0.4965 C.3     1  LIG1        0.0085
     28 C           7.1350   -6.5183    0.9062 C.2     1  LIG1        0.0477
     29 C           5.1392   -8.0356    1.4599 C.3     1  LIG1       -0.0544
     30 C           7.3269   -8.9041    0.6383 C.3     1  LIG1       -0.0544
     31 O           7.8697   -6.0258   -0.0007 O.co2   1  LIG1       -0.5493
     32 O           7.0494   -6.1722    2.1195 O.co2   1  LIG1       -0.5493
     33 H           4.7232   -1.1569   -1.3966 H       1  LIG1        0.1754
     34 H           0.1954   -0.8253   -2.4066 H       1  LIG1        0.0638
     35 H          -1.4140   -2.0174   -3.8589 H       1  LIG1        0.0633
     36 H           1.3960   -6.2943   -1.3918 H       1  LIG1        0.0624
     37 H           4.4784   -3.5961   -2.7375 H       1  LIG1        0.0624
     38 H          -0.9545   -4.4149   -4.4111 H       1  LIG1        0.0830
     39 H           4.0935    3.1934   -2.0909 H       1  LIG1        0.0848
     40 H           3.1089   -7.9249   -0.7533 H       1  LIG1        0.0620
     41 H           6.1825   -5.1902   -1.9931 H       1  LIG1        0.0620
     42 H           2.1098   -1.8576   -6.3890 H       1  LIG1        0.0660
     43 H           3.0131   -0.3473   -6.5547 H       1  LIG1        0.0660
     44 H           1.3118   -0.3425   -5.9493 H       1  LIG1        0.0660
     45 H           2.1417    3.6159   -5.3317 H       1  LIG1        0.0293
     46 H           3.5880    4.3384   -4.6025 H       1  LIG1        0.0293
     47 H           2.0599    4.2608   -3.6849 H       1  LIG1        0.0293
     48 H           6.6957   -7.5449   -1.6413 H       1  LIG1        0.0322
     49 H           5.4488   -8.6868   -1.2676 H       1  LIG1        0.0322
     50 H           4.5537   -8.9032    1.1349 H       1  LIG1        0.0239
     51 H           4.4666   -7.1752    1.5378 H       1  LIG1        0.0239
     52 H           5.4964   -8.2520    2.4735 H       1  LIG1        0.0239
     53 H           6.8729   -9.8713    0.3929 H       1  LIG1        0.0239
     54 H           7.7163   -8.9733    1.6613 H       1  LIG1        0.0239
     55 H           8.1861   -8.7653   -0.0287 H       1  LIG1        0.0239
@<TRIPOS>BOND
     1     1     5    2
     2     1     4    2
     3     1     3    1
     4     1     2    1
     5     2     6   ar
     6     2     7   ar
     7     3     8    1
     8     6    10   ar
     9     6     9    1
    10     7    11   ar
    11     8    12   ar
    12     8    13   ar
    13     9    14   ar
    14     9    15   ar
    15    10    16   ar
    16    11    16   ar
    17    12    17   ar
    18    12    18    1
    19    13    19   ar
    20    14    20   ar
    21    15    21   ar
    22    17    22   ar
    23    18    23    1
    24    19    22   ar
    25    20    24   ar
    26    21    24   ar
    27    22    25    1
    28    24    26    1
    29    26    27    1
    30    27    30    1
    31    27    29    1
    32    27    28    1
    33    28    32   ar
    34    28    31   ar
    35     3    33    1
    36     7    34    1
    37    11    35    1
    38    14    36    1
    39    15    37    1
    40    16    38    1
    41    19    39    1
    42    20    40    1
    43    21    41    1
    44    23    42    1
    45    23    43    1
    46    23    44    1
    47    25    45    1
    48    25    46    1
    49    25    47    1
    50    26    48    1
    51    26    49    1
    52    29    50    1
    53    29    51    1
    54    29    52    1
    55    30    53    1
    56    30    54    1
    57    30    55    1
@<TRIPOS>MOLECULE
01178588C
 55 57 0 0 0
SMALL
GASTEIGER

@<TRIPOS>ATOM
      1 S           2.7021   -1.6679   -1.1267 S.O2    1  LIG1        0.0756
      2 C           1.5560   -2.5323   -2.1538 C.ar    1  LIG1        0.1344
      3 N           3.9470   -1.1872   -2.1711 N.pl3   1  LIG1       -0.1951
      4 O           3.2866   -2.5873   -0.1816 O.2     1  LIG1       -0.1499
      5 O           2.0293   -0.4806   -0.6317 O.2     1  LIG1       -0.1499
      6 C           1.6889   -3.8695   -2.5128 C.ar    1  LIG1        0.0975
      7 C           0.3947   -1.8375   -2.5440 C.ar    1  LIG1       -0.0315
      8 C           3.7046    0.0264   -2.8633 C.ar    1  LIG1        0.2006
      9 C           2.7528   -4.8035   -2.1100 C.ar    1  LIG1        0.0023
     10 N           0.7334   -4.4793   -3.2814 N.ar    1  LIG1       -0.2530
     11 C          -0.5736   -2.4672   -3.3135 C.ar    1  LIG1       -0.0417
     12 C           2.9265    0.1290   -4.0239 C.ar    1  LIG1        0.2574
     13 N           4.1927    1.1065   -2.2209 N.ar    1  LIG1       -0.2325
     14 C           2.4161   -5.9500   -1.3682 C.ar    1  LIG1       -0.0523
     15 C           4.0950   -4.6434   -2.4803 C.ar    1  LIG1       -0.0523
     16 C          -0.3564   -3.7818   -3.6605 C.ar    1  LIG1        0.0284
     17 N           2.5709    1.3279   -4.5500 N.ar    1  LIG1       -0.2137
     18 O           2.5485   -1.0317   -4.6653 O.3     1  LIG1       -0.4773
     19 C           3.8206    2.2987   -2.7461 C.ar    1  LIG1        0.0510
     20 C           3.3818   -6.8830   -0.9786 C.ar    1  LIG1       -0.0579
     21 C           5.0663   -5.5788   -2.0887 C.ar    1  LIG1       -0.0579
     22 C           3.0155    2.4185   -3.8778 C.ar    1  LIG1        0.0602
     23 C           1.8113   -0.8092   -5.8613 C.3     1  LIG1        0.0805
     24 C           4.7205   -6.7110   -1.3351 C.ar    1  LIG1       -0.0465
     25 C           2.5949    3.7660   -4.3757 C.3     1  LIG1       -0.0208
     26 C           5.7832   -7.6909   -0.8705 C.3     1  LIG1       -0.0174
     27 C           5.6482   -9.1674   -1.3160 C.3     1  LIG1        0.0085
     28 C           4.5994   -9.9549   -0.4856 C.2     1  LIG1        0.0477
     29 C           5.4221   -9.2880   -2.8276 C.3     1  LIG1       -0.0544
     30 C           6.9511   -9.9131   -0.9549 C.3     1  LIG1       -0.0544
     31 O           4.5741   -9.6990    0.7535 O.co2   1  LIG1       -0.5493
     32 O           3.8996  -10.7919   -1.1243 O.co2   1  LIG1       -0.5493
     33 H           4.8177   -1.1691   -1.6434 H       1  LIG1        0.1754
     34 H           0.2405   -0.8008   -2.2513 H       1  LIG1        0.0638
     35 H          -1.4711   -1.9471   -3.6258 H       1  LIG1        0.0633
     36 H           1.3803   -6.1331   -1.0884 H       1  LIG1        0.0624
     37 H           4.4020   -3.7967   -3.0869 H       1  LIG1        0.0624
     38 H          -1.0728   -4.3363   -4.2589 H       1  LIG1        0.0830
     39 H           4.1791    3.1726   -2.2111 H       1  LIG1        0.0848
     40 H           3.0738   -7.7457   -0.3894 H       1  LIG1        0.0620
     41 H           6.1018   -5.4183   -2.3776 H       1  LIG1        0.0620
     42 H           1.5709   -1.7862   -6.2914 H       1  LIG1        0.0660
     43 H           2.4057   -0.2582   -6.5984 H       1  LIG1        0.0660
     44 H           0.8664   -0.2946   -5.6551 H       1  LIG1        0.0660
     45 H           1.9861    3.6738   -5.2811 H       1  LIG1        0.0293
     46 H           3.4711    4.3760   -4.6144 H       1  LIG1        0.0293
     47 H           1.9959    4.2781   -3.6159 H       1  LIG1        0.0293
     48 H           5.8375   -7.6142    0.2237 H       1  LIG1        0.0322
     49 H           6.7560   -7.3204   -1.2240 H       1  LIG1        0.0322
     50 H           6.1786   -8.7258   -3.3863 H       1  LIG1        0.0239
     51 H           4.4348   -8.9145   -3.1196 H       1  LIG1        0.0239
     52 H           5.4804  -10.3311   -3.1611 H       1  LIG1        0.0239
     53 H           7.8003   -9.5169   -1.5234 H       1  LIG1        0.0239
     54 H           6.8789  -10.9852   -1.1755 H       1  LIG1        0.0239
     55 H           7.1953   -9.8140    0.1097 H       1  LIG1        0.0239
@<TRIPOS>BOND
     1     1     5    2
     2     1     4    2
     3     1     3    1
     4     1     2    1
     5     2     6   ar
     6     2     7   ar
     7     3     8    1
     8     6    10   ar
     9     6     9    1
    10     7    11   ar
    11     8    12   ar
    12     8    13   ar
    13     9    14   ar
    14     9    15   ar
    15    10    16   ar
    16    11    16   ar
    17    12    17   ar
    18    12    18    1
    19    13    19   ar
    20    14    20   ar
    21    15    21   ar
    22    17    22   ar
    23    18    23    1
    24    19    22   ar
    25    20    24   ar
    26    21    24   ar
    27    22    25    1
    28    24    26    1
    29    26    27    1
    30    27    30    1
    31    27    29    1
    32    27    28    1
    33    28    32   ar
    34    28    31   ar
    35     3    33    1
    36     7    34    1
    37    11    35    1
    38    14    36    1
    39    15    37    1
    40    16    38    1
    41    19    39    1
    42    20    40    1
    43    21    41    1
    44    23    42    1
    45    23    43    1
    46    23    44    1
    47    25    45    1
    48    25    46    1
    49    25    47    1
    50    26    48    1
    51    26    49    1
    52    29    50    1
    53    29    51    1
    54    29    52    1
    55    30    53    1
    56    30    54    1
    57    30    55    1
@<TRIPOS>MOLECULE
01178588C
 55 57 0 0 0
SMALL
GASTEIGER

@<TRIPOS>ATOM
      1 S           2.6259   -1.6276   -1.0966 S.O2    1  LIG1        0.0756
      2 C           1.5387   -2.5402   -2.1509 C.ar    1  LIG1        0.1344
      3 N           3.9060   -1.1557   -2.0990 N.pl3   1  LIG1       -0.1951
      4 O           3.1570   -2.5237   -0.1003 O.2     1  LIG1       -0.1499
      5 O           1.9102   -0.4387   -0.6690 O.2     1  LIG1       -0.1499
      6 C           1.7085   -3.8812   -2.4848 C.ar    1  LIG1        0.0975
      7 C           0.3697   -1.8762   -2.5750 C.ar    1  LIG1       -0.0315
      8 C           3.6891    0.0488   -2.8141 C.ar    1  LIG1        0.2006
      9 C           2.7914   -4.8002   -2.0753 C.ar    1  LIG1        0.0023
     10 N           0.7683   -4.5216   -3.2552 N.ar    1  LIG1       -0.2530
     11 C          -0.5746   -2.5366   -3.3469 C.ar    1  LIG1       -0.0417
     12 C           2.9278    0.1428   -3.9872 C.ar    1  LIG1        0.2574
     13 N           4.1665    1.1353   -2.1747 N.ar    1  LIG1       -0.2325
     14 C           2.4545   -6.0575   -1.5342 C.ar    1  LIG1       -0.0523
     15 C           4.1550   -4.5323   -2.2579 C.ar    1  LIG1       -0.0523
     16 C          -0.3289   -3.8518   -3.6631 C.ar    1  LIG1        0.0284
     17 N           2.5762    1.3374   -4.5270 N.ar    1  LIG1       -0.2137
     18 O           2.5535   -1.0217   -4.6251 O.3     1  LIG1       -0.4773
     19 C           3.8035    2.3225   -2.7157 C.ar    1  LIG1        0.0510
     20 C           3.4286   -6.9961   -1.1798 C.ar    1  LIG1       -0.0579
     21 C           5.1366   -5.4571   -1.8671 C.ar    1  LIG1       -0.0579
     22 C           3.0117    2.4331   -3.8563 C.ar    1  LIG1        0.0602
     23 C           1.8414   -0.8048   -5.8372 C.3     1  LIG1        0.0805
     24 C           4.7841   -6.7017   -1.3334 C.ar    1  LIG1       -0.0465
     25 C           2.5880    3.7758   -4.3644 C.3     1  LIG1       -0.0208
     26 C           5.8486   -7.7173   -0.9709 C.3     1  LIG1       -0.0174
     27 C           6.2855   -7.7907    0.5084 C.3     1  LIG1        0.0085
     28 C           7.0851   -6.5362    0.9507 C.2     1  LIG1        0.0477
     29 C           5.1123   -8.1059    1.4448 C.3     1  LIG1       -0.0544
     30 C           7.3341   -8.9135    0.6548 C.3     1  LIG1       -0.0544
     31 O           7.8413   -6.0273    0.0711 O.co2   1  LIG1       -0.5493
     32 O           6.9538   -6.1984    2.1621 O.co2   1  LIG1       -0.5493
     33 H           4.7663   -1.1486   -1.5504 H       1  LIG1        0.1754
     34 H           0.1904   -0.8372   -2.3044 H       1  LIG1        0.0638
     35 H          -1.4759   -2.0364   -3.6813 H       1  LIG1        0.0633
     36 H           1.4077   -6.3210   -1.3967 H       1  LIG1        0.0624
     37 H           4.4883   -3.6065   -2.7134 H       1  LIG1        0.0624
     38 H          -1.0271   -4.4299   -4.2605 H       1  LIG1        0.0830
     39 H           4.1571    3.2002   -2.1831 H       1  LIG1        0.0848
     40 H           3.1200   -7.9567   -0.7770 H       1  LIG1        0.0620
     41 H           6.1912   -5.2036   -1.9788 H       1  LIG1        0.0620
     42 H           1.6093   -1.7836   -6.2680 H       1  LIG1        0.0660
     43 H           2.4498   -0.2570   -6.5654 H       1  LIG1        0.0660
     44 H           0.8922   -0.2898   -5.6525 H       1  LIG1        0.0660
     45 H           1.9856    3.6762   -5.2734 H       1  LIG1        0.0293
     46 H           3.4623    4.3897   -4.5995 H       1  LIG1        0.0293
     47 H           1.9803    4.2878   -3.6113 H       1  LIG1        0.0293
     48 H           6.7201   -7.5466   -1.6185 H       1  LIG1        0.0322
     49 H           5.4762   -8.7043   -1.2826 H       1  LIG1        0.0322
     50 H           4.5531   -8.9819    1.0965 H       1  LIG1        0.0239
     51 H           4.4183   -7.2626    1.5217 H       1  LIG1        0.0239
     52 H           5.4546   -8.3285    2.4624 H       1  LIG1        0.0239
     53 H           6.9056   -9.8874    0.3910 H       1  LIG1        0.0239
     54 H           7.7079   -8.9858    1.6835 H       1  LIG1        0.0239
     55 H           8.2013   -8.7487    0.0043 H       1  LIG1        0.0239
@<TRIPOS>BOND
     1     1     5    2
     2     1     4    2
     3     1     3    1
     4     1     2    1
     5     2     6   ar
     6     2     7   ar
     7     3     8    1
     8     6    10   ar
     9     6     9    1
    10     7    11   ar
    11     8    12   ar
    12     8    13   ar
    13     9    14   ar
    14     9    15   ar
    15    10    16   ar
    16    11    16   ar
    17    12    17   ar
    18    12    18    1
    19    13    19   ar
    20    14    20   ar
    21    15    21   ar
    22    17    22   ar
    23    18    23    1
    24    19    22   ar
    25    20    24   ar
    26    21    24   ar
    27    22    25    1
    28    24    26    1
    29    26    27    1
    30    27    30    1
    31    27    29    1
    32    27    28    1
    33    28    32   ar
    34    28    31   ar
    35     3    33    1
    36     7    34    1
    37    11    35    1
    38    14    36    1
    39    15    37    1
    40    16    38    1
    41    19    39    1
    42    20    40    1
    43    21    41    1
    44    23    42    1
    45    23    43    1
    46    23    44    1
    47    25    45    1
    48    25    46    1
    49    25    47    1
    50    26    48    1
    51    26    49    1
    52    29    50    1
    53    29    51    1
    54    29    52    1
    55    30    53    1
    56    30    54    1
    57    30    55    1
@<TRIPOS>MOLECULE
01178588C
 55 57 0 0 0
SMALL
GASTEIGER

@<TRIPOS>ATOM
      1 S           2.8655   -1.6890   -1.2202 S.O2    1  LIG1        0.0756
      2 C           1.7362   -2.4361   -2.3478 C.ar    1  LIG1        0.1344
      3 N           2.3879   -0.0674   -1.0871 N.pl3   1  LIG1       -0.1951
      4 O           4.1432   -1.5945   -1.8968 O.2     1  LIG1       -0.1499
      5 O           2.7244   -2.3094    0.0775 O.2     1  LIG1       -0.1499
      6 C           1.7241   -3.8178   -2.5401 C.ar    1  LIG1        0.0975
      7 C           0.7875   -1.6489   -3.0180 C.ar    1  LIG1       -0.0315
      8 C           1.4688    0.1965   -0.0401 C.ar    1  LIG1        0.2006
      9 C           2.6817   -4.8093   -2.0046 C.ar    1  LIG1        0.0023
     10 N           0.7695   -4.4011   -3.3299 N.ar    1  LIG1       -0.2530
     11 C          -0.1714   -2.2505   -3.8242 C.ar    1  LIG1       -0.0417
     12 C           1.8808    0.5040    1.2622 C.ar    1  LIG1        0.2574
     13 N           0.1709    0.0992   -0.3902 N.ar    1  LIG1       -0.2325
     14 C           4.0671   -4.7119   -2.2106 C.ar    1  LIG1       -0.0523
     15 C           2.2087   -5.9715   -1.3697 C.ar    1  LIG1       -0.0523
     16 C          -0.1461   -3.6226   -3.9402 C.ar    1  LIG1        0.0284
     17 N           0.9982    0.7931    2.2494 N.ar    1  LIG1       -0.2137
     18 O           3.2362    0.6149    1.5057 O.3     1  LIG1       -0.4773
     19 C          -0.7046    0.3619    0.6095 C.ar    1  LIG1        0.0510
     20 C           4.9425   -5.7174   -1.7770 C.ar    1  LIG1       -0.0579
     21 C           3.0783   -6.9905   -0.9612 C.ar    1  LIG1       -0.0579
     22 C          -0.3109    0.7098    1.9020 C.ar    1  LIG1        0.0602
     23 C           3.5459    0.3847    2.8770 C.3     1  LIG1        0.0805
     24 C           4.4561   -6.8741   -1.1601 C.ar    1  LIG1       -0.0465
     25 C          -1.3346    1.0277    2.9463 C.3     1  LIG1       -0.0208
     26 C           5.3976   -8.0019   -0.7814 C.3     1  LIG1       -0.0174
     27 C           5.7774   -8.1187    0.7112 C.3     1  LIG1        0.0085
     28 C           6.7842   -9.3075    0.7077 C.2     1  LIG1        0.0477
     29 C           6.4250   -6.8383    1.2468 C.3     1  LIG1       -0.0544
     30 C           4.5954   -8.5111    1.6040 C.3     1  LIG1       -0.0544
     31 O           6.2761  -10.4572    0.5639 O.co2   1  LIG1       -0.5493
     32 O           8.0054   -9.0002    0.8239 O.co2   1  LIG1       -0.5493
     33 H           3.2441    0.4838   -1.0231 H       1  LIG1        0.1754
     34 H           0.7681   -0.5690   -2.9079 H       1  LIG1        0.0638
     35 H          -0.9234   -1.6616   -4.3356 H       1  LIG1        0.0633
     36 H           4.4944   -3.8717   -2.7515 H       1  LIG1        0.0624
     37 H           1.1396   -6.1105   -1.2230 H       1  LIG1        0.0624
     38 H          -0.8748   -4.1536   -4.5449 H       1  LIG1        0.0830
     39 H          -1.7527    0.2935    0.3375 H       1  LIG1        0.0848
     40 H           6.0110   -5.6070   -1.9551 H       1  LIG1        0.0620
     41 H           2.6693   -7.8913   -0.5084 H       1  LIG1        0.0620
     42 H           4.6342    0.3133    2.9656 H       1  LIG1        0.0660
     43 H           3.1195   -0.5600    3.2331 H       1  LIG1        0.0660
     44 H           3.2146    1.2228    3.4997 H       1  LIG1        0.0660
     45 H          -0.8555    1.2578    3.9042 H       1  LIG1        0.0293
     46 H          -2.0038    0.1757    3.0952 H       1  LIG1        0.0293
     47 H          -1.9231    1.8992    2.6432 H       1  LIG1        0.0293
     48 H           6.3126   -7.8985   -1.3841 H       1  LIG1        0.0322
     49 H           4.9429   -8.9382   -1.1380 H       1  LIG1        0.0322
     50 H           5.7021   -6.0176    1.3085 H       1  LIG1        0.0239
     51 H           7.2513   -6.5051    0.6094 H       1  LIG1        0.0239
     52 H           6.8291   -6.9941    2.2540 H       1  LIG1        0.0239
     53 H           3.9085   -7.6711    1.7540 H       1  LIG1        0.0239
     54 H           4.9401   -8.8307    2.5943 H       1  LIG1        0.0239
     55 H           4.0161   -9.3387    1.1781 H       1  LIG1        0.0239
@<TRIPOS>BOND
     1     1     5    2
     2     1     4    2
     3     1     3    1
     4     1     2    1
     5     2     6   ar
     6     2     7   ar
     7     3     8    1
     8     6    10   ar
     9     6     9    1
    10     7    11   ar
    11     8    12   ar
    12     8    13   ar
    13     9    14   ar
    14     9    15   ar
    15    10    16   ar
    16    11    16   ar
    17    12    17   ar
    18    12    18    1
    19    13    19   ar
    20    14    20   ar
    21    15    21   ar
    22    17    22   ar
    23    18    23    1
    24    19    22   ar
    25    20    24   ar
    26    21    24   ar
    27    22    25    1
    28    24    26    1
    29    26    27    1
    30    27    30    1
    31    27    29    1
    32    27    28    1
    33    28    32   ar
    34    28    31   ar
    35     3    33    1
    36     7    34    1
    37    11    35    1
    38    14    36    1
    39    15    37    1
    40    16    38    1
    41    19    39    1
    42    20    40    1
    43    21    41    1
    44    23    42    1
    45    23    43    1
    46    23    44    1
    47    25    45    1
    48    25    46    1
    49    25    47    1
    50    26    48    1
    51    26    49    1
    52    29    50    1
    53    29    51    1
    54    29    52    1
    55    30    53    1
    56    30    54    1
    57    30    55    1
@<TRIPOS>MOLECULE
01178588C
 55 57 0 0 0
SMALL
GASTEIGER

@<TRIPOS>ATOM
      1 S           2.9187   -1.6345   -1.1379 S.O2    1  LIG1        0.0756
      2 C           1.7014   -2.4747   -2.1136 C.ar    1  LIG1        0.1344
      3 N           4.0143   -1.1946   -2.3535 N.pl3   1  LIG1       -0.1951
      4 O           3.5345   -2.5579   -0.2160 O.2     1  LIG1       -0.1499
      5 O           2.2830   -0.4284   -0.6396 O.2     1  LIG1       -0.1499
      6 C           1.7235   -3.8368   -2.3984 C.ar    1  LIG1        0.0975
      7 C           0.6356   -1.6902   -2.5975 C.ar    1  LIG1       -0.0315
      8 C           4.6508    0.0492   -2.1170 C.ar    1  LIG1        0.2006
      9 C           2.7157   -4.8511   -1.9848 C.ar    1  LIG1        0.0023
     10 N           0.7238   -4.3908   -3.1569 N.ar    1  LIG1       -0.2530
     11 C          -0.3716   -2.2675   -3.3574 C.ar    1  LIG1       -0.0417
     12 C           5.5519    0.3231   -1.0826 C.ar    1  LIG1        0.2574
     13 N           4.2595    0.9744   -3.0215 N.ar    1  LIG1       -0.2325
     14 C           4.0980   -4.7187   -2.1863 C.ar    1  LIG1       -0.0523
     15 C           2.2636   -6.0660   -1.4331 C.ar    1  LIG1       -0.0523
     16 C          -0.2833   -3.6168   -3.6103 C.ar    1  LIG1        0.0284
     17 N           6.0831    1.5610   -0.9125 N.ar    1  LIG1       -0.2137
     18 O           5.9392   -0.7058   -0.2553 O.3     1  LIG1       -0.4773
     19 C           4.7855    2.2069   -2.8270 C.ar    1  LIG1        0.0510
     20 C           4.9896   -5.7333   -1.8057 C.ar    1  LIG1       -0.0579
     21 C           3.1466   -7.0907   -1.0809 C.ar    1  LIG1       -0.0579
     22 C           5.6785    2.5048   -1.7984 C.ar    1  LIG1        0.0602
     23 C           6.8897   -0.3248    0.7298 C.3     1  LIG1        0.0805
     24 C           4.5224   -6.9300   -1.2512 C.ar    1  LIG1       -0.0465
     25 C           6.2024    3.8959   -1.6270 C.3     1  LIG1       -0.0208
     26 C           5.4823   -8.0417   -0.8722 C.3     1  LIG1       -0.0174
     27 C           5.8460   -8.1515    0.6260 C.3     1  LIG1        0.0085
     28 C           6.8455   -9.3441    0.6211 C.2     1  LIG1        0.0477
     29 C           6.5186   -6.8813    1.1564 C.3     1  LIG1       -0.0544
     30 C           4.6472   -8.5030    1.5148 C.3     1  LIG1       -0.0544
     31 O           8.0688   -9.0416    0.5271 O.co2   1  LIG1       -0.5493
     32 O           6.3277  -10.4968    0.6748 O.co2   1  LIG1       -0.5493
     33 H           3.5818   -1.1621   -3.2734 H       1  LIG1        0.1754
     34 H           0.5820   -0.6252   -2.3774 H       1  LIG1        0.0638
     35 H          -1.2023   -1.6815   -3.7331 H       1  LIG1        0.0633
     36 H           4.5169   -3.8271   -2.6409 H       1  LIG1        0.0624
     37 H           1.1975   -6.2315   -1.2894 H       1  LIG1        0.0624
     38 H          -1.0368   -4.1352   -4.1958 H       1  LIG1        0.0830
     39 H           4.4612    2.9669   -3.5307 H       1  LIG1        0.0848
     40 H           6.0581   -5.5876   -1.9501 H       1  LIG1        0.0620
     41 H           2.7531   -8.0192   -0.6743 H       1  LIG1        0.0620
     42 H           7.1363   -1.2137    1.3184 H       1  LIG1        0.0660
     43 H           6.4742    0.4242    1.4124 H       1  LIG1        0.0660
     44 H           7.8165    0.0356    0.2694 H       1  LIG1        0.0660
     45 H           6.9882    3.9247   -0.8654 H       1  LIG1        0.0293
     46 H           5.3951    4.5650   -1.3133 H       1  LIG1        0.0293
     47 H           6.6279    4.2630   -2.5663 H       1  LIG1        0.0293
     48 H           6.3979   -7.9179   -1.4695 H       1  LIG1        0.0322
     49 H           5.0488   -8.9872   -1.2302 H       1  LIG1        0.0322
     50 H           5.8073   -6.0514    1.2315 H       1  LIG1        0.0239
     51 H           7.3401   -6.5536    0.5095 H       1  LIG1        0.0239
     52 H           6.9352   -7.0480    2.1568 H       1  LIG1        0.0239
     53 H           3.9749   -7.6478    1.6421 H       1  LIG1        0.0239
     54 H           4.9764   -8.8083    2.5151 H       1  LIG1        0.0239
     55 H           4.0574   -9.3284    1.0998 H       1  LIG1        0.0239
@<TRIPOS>BOND
     1     1     5    2
     2     1     4    2
     3     1     3    1
     4     1     2    1
     5     2     6   ar
     6     2     7   ar
     7     3     8    1
     8     6    10   ar
     9     6     9    1
    10     7    11   ar
    11     8    12   ar
    12     8    13   ar
    13     9    14   ar
    14     9    15   ar
    15    10    16   ar
    16    11    16   ar
    17    12    17   ar
    18    12    18    1
    19    13    19   ar
    20    14    20   ar
    21    15    21   ar
    22    17    22   ar
    23    18    23    1
    24    19    22   ar
    25    20    24   ar
    26    21    24   ar
    27    22    25    1
    28    24    26    1
    29    26    27    1
    30    27    30    1
    31    27    29    1
    32    27    28    1
    33    28    32   ar
    34    28    31   ar
    35     3    33    1
    36     7    34    1
    37    11    35    1
    38    14    36    1
    39    15    37    1
    40    16    38    1
    41    19    39    1
    42    20    40    1
    43    21    41    1
    44    23    42    1
    45    23    43    1
    46    23    44    1
    47    25    45    1
    48    25    46    1
    49    25    47    1
    50    26    48    1
    51    26    49    1
    52    29    50    1
    53    29    51    1
    54    29    52    1
    55    30    53    1
    56    30    54    1
    57    30    55    1
@<TRIPOS>MOLECULE
01178588C
 55 57 0 0 0
SMALL
GASTEIGER

@<TRIPOS>ATOM
      1 S           3.0177   -1.5433   -1.2043 S.O2    1  LIG1        0.0756
      2 C           1.6982   -2.4257   -2.0021 C.ar    1  LIG1        0.1344
      3 N           4.4122   -2.0361   -2.0231 N.pl3   1  LIG1       -0.1951
      4 O           3.0678   -2.0063    0.1665 O.2     1  LIG1       -0.1499
      5 O           2.7874   -0.1341   -1.4616 O.2     1  LIG1       -0.1499
      6 C           1.6930   -3.8008   -2.2447 C.ar    1  LIG1        0.0975
      7 C           0.6072   -1.6544   -2.4463 C.ar    1  LIG1       -0.0315
      8 C           5.0425   -0.9706   -2.7108 C.ar    1  LIG1        0.2006
      9 C           2.7373   -4.8071   -1.9271 C.ar    1  LIG1        0.0023
     10 N           0.6472   -4.3706   -2.9230 N.ar    1  LIG1       -0.2530
     11 C          -0.4488   -2.2497   -3.1228 C.ar    1  LIG1       -0.0417
     12 C           5.8636   -0.0206   -2.0878 C.ar    1  LIG1        0.2574
     13 N           4.6755   -0.8962   -4.0073 N.ar    1  LIG1       -0.2325
     14 C           3.3613   -4.9247   -0.6794 C.ar    1  LIG1       -0.0523
     15 C           3.0874   -5.7725   -2.8959 C.ar    1  LIG1       -0.0523
     16 C          -0.3836   -3.6064   -3.3362 C.ar    1  LIG1        0.0284
     17 N           6.3479    1.0554   -2.7577 N.ar    1  LIG1       -0.2137
     18 O           6.1688   -0.1829   -0.7526 O.3     1  LIG1       -0.4773
     19 C           5.1534    0.1924   -4.6574 C.ar    1  LIG1        0.0510
     20 C           4.3286   -5.9088   -0.4297 C.ar    1  LIG1       -0.0579
     21 C           4.0176   -6.7868   -2.6370 C.ar    1  LIG1       -0.0579
     22 C           5.9669    1.1548   -4.0553 C.ar    1  LIG1        0.0602
     23 C           7.3436    0.5190   -0.3685 C.3     1  LIG1        0.0805
     24 C           4.6526   -6.8622   -1.3975 C.ar    1  LIG1       -0.0465
     25 C           6.4265    2.3510   -4.8268 C.3     1  LIG1       -0.0208
     26 C           5.6519   -7.9658   -1.1029 C.3     1  LIG1       -0.0174
     27 C           5.1328   -9.1487   -0.2514 C.3     1  LIG1        0.0085
     28 C           6.3426  -10.1275   -0.2043 C.2     1  LIG1        0.0477
     29 C           4.8385   -8.7610    1.2033 C.3     1  LIG1       -0.0544
     30 C           3.8939   -9.8104   -0.8649 C.3     1  LIG1       -0.0544
     31 O           7.3784   -9.6901    0.3773 O.co2   1  LIG1       -0.5493
     32 O           6.1734  -11.2493   -0.7607 O.co2   1  LIG1       -0.5493
     33 H           4.2403   -2.7899   -2.6846 H       1  LIG1        0.1754
     34 H           0.5750   -0.5800   -2.2726 H       1  LIG1        0.0638
     35 H          -1.2934   -1.6684   -3.4746 H       1  LIG1        0.0633
     36 H           3.0907   -4.2853    0.1544 H       1  LIG1        0.0624
     37 H           2.5968   -5.7655   -3.8696 H       1  LIG1        0.0624
     38 H          -1.1717   -4.1372   -3.8621 H       1  LIG1        0.0830
     39 H           4.8502    0.2809   -5.6959 H       1  LIG1        0.0848
     40 H           4.8073   -5.9455    0.5476 H       1  LIG1        0.0620
     41 H           4.2263   -7.5315   -3.4018 H       1  LIG1        0.0620
     42 H           7.5751    0.2446    0.6652 H       1  LIG1        0.0660
     43 H           7.1903    1.6037   -0.3991 H       1  LIG1        0.0660
     44 H           8.2001    0.2280   -0.9880 H       1  LIG1        0.0660
     45 H           7.0864    2.9777   -4.2176 H       1  LIG1        0.0293
     46 H           5.5670    2.9571   -5.1301 H       1  LIG1        0.0293
     47 H           6.9799    2.0400   -5.7181 H       1  LIG1        0.0293
     48 H           6.5233   -7.4950   -0.6264 H       1  LIG1        0.0322
     49 H           6.0335   -8.3482   -2.0610 H       1  LIG1        0.0322
     50 H           3.9166   -8.1764    1.2845 H       1  LIG1        0.0239
     51 H           5.6485   -8.1658    1.6405 H       1  LIG1        0.0239
     52 H           4.7130   -9.6510    1.8313 H       1  LIG1        0.0239
     53 H           3.0271   -9.1414   -0.8467 H       1  LIG1        0.0239
     54 H           3.6135  -10.7152   -0.3122 H       1  LIG1        0.0239
     55 H           4.0692  -10.1034   -1.9068 H       1  LIG1        0.0239
@<TRIPOS>BOND
     1     1     5    2
     2     1     4    2
     3     1     3    1
     4     1     2    1
     5     2     6   ar
     6     2     7   ar
     7     3     8    1
     8     6    10   ar
     9     6     9    1
    10     7    11   ar
    11     8    12   ar
    12     8    13   ar
    13     9    14   ar
    14     9    15   ar
    15    10    16   ar
    16    11    16   ar
    17    12    17   ar
    18    12    18    1
    19    13    19   ar
    20    14    20   ar
    21    15    21   ar
    22    17    22   ar
    23    18    23    1
    24    19    22   ar
    25    20    24   ar
    26    21    24   ar
    27    22    25    1
    28    24    26    1
    29    26    27    1
    30    27    30    1
    31    27    29    1
    32    27    28    1
    33    28    32   ar
    34    28    31   ar
    35     3    33    1
    36     7    34    1
    37    11    35    1
    38    14    36    1
    39    15    37    1
    40    16    38    1
    41    19    39    1
    42    20    40    1
    43    21    41    1
    44    23    42    1
    45    23    43    1
    46    23    44    1
    47    25    45    1
    48    25    46    1
    49    25    47    1
    50    26    48    1
    51    26    49    1
    52    29    50    1
    53    29    51    1
    54    29    52    1
    55    30    53    1
    56    30    54    1
    57    30    55    1
@<TRIPOS>MOLECULE
01178588C
 55 57 0 0 0
SMALL
GASTEIGER

@<TRIPOS>ATOM
      1 S           2.5830   -1.6714   -1.0663 S.O2    1  LIG1        0.0756
      2 C           1.4696   -2.5627   -2.1083 C.ar    1  LIG1        0.1344
      3 N           3.8649   -1.2362   -2.0738 N.pl3   1  LIG1       -0.1951
      4 O           3.0934   -2.5803   -0.0654 O.2     1  LIG1       -0.1499
      5 O           1.8909   -0.4690   -0.6381 O.2     1  LIG1       -0.1499
      6 C           1.6533   -3.8949   -2.4596 C.ar    1  LIG1        0.0975
      7 C           0.2892   -1.9103   -2.5097 C.ar    1  LIG1       -0.0315
      8 C           3.6796   -0.0241   -2.7837 C.ar    1  LIG1        0.2006
      9 C           2.7853   -4.7599   -2.0969 C.ar    1  LIG1        0.0023
     10 N           0.7131   -4.5572   -3.2038 N.ar    1  LIG1       -0.2530
     11 C          -0.6544   -2.5828   -3.2737 C.ar    1  LIG1       -0.0417
     12 C           2.9165    0.0886   -3.9542 C.ar    1  LIG1        0.2574
     13 N           4.1828    1.0504   -2.1440 N.ar    1  LIG1       -0.2325
     14 C           2.5639   -5.8948   -1.2980 C.ar    1  LIG1       -0.0523
     15 C           4.0813   -4.5509   -2.5893 C.ar    1  LIG1       -0.0523
     16 C          -0.3971   -3.8980   -3.5943 C.ar    1  LIG1        0.0284
     17 N           2.5964    1.2912   -4.4961 N.ar    1  LIG1       -0.2137
     18 O           2.4983   -1.0671   -4.5802 O.3     1  LIG1       -0.4773
     19 C           3.8543    2.2461   -2.6890 C.ar    1  LIG1        0.0510
     20 C           3.5998   -6.7820   -0.9910 C.ar    1  LIG1       -0.0579
     21 C           5.1221   -5.4387   -2.2807 C.ar    1  LIG1       -0.0579
     22 C           3.0670    2.3758   -3.8320 C.ar    1  LIG1        0.0602
     23 C           1.8355   -0.8379   -5.8171 C.3     1  LIG1        0.0805
     24 C           4.8925   -6.5637   -1.4799 C.ar    1  LIG1       -0.0465
     25 C           2.6911    3.7287   -4.3497 C.3     1  LIG1       -0.0208
     26 C           5.9947   -7.5651   -1.1912 C.3     1  LIG1       -0.0174
     27 C           7.1796   -7.0831   -0.3243 C.3     1  LIG1        0.0085
     28 C           8.1808   -6.2352   -1.1515 C.2     1  LIG1        0.0477
     29 C           6.7045   -6.3805    0.9532 C.3     1  LIG1       -0.0544
     30 C           8.0268   -8.3076    0.0795 C.3     1  LIG1       -0.0544
     31 O           8.4430   -6.6658   -2.3111 O.co2   1  LIG1       -0.5493
     32 O           8.6512   -5.2109   -0.5762 O.co2   1  LIG1       -0.5493
     33 H           4.7424   -1.2813   -1.5556 H       1  LIG1        0.1754
     34 H           0.1043   -0.8741   -2.2342 H       1  LIG1        0.0638
     35 H          -1.5641   -2.0941   -3.6022 H       1  LIG1        0.0633
     36 H           1.5644   -6.1045   -0.9240 H       1  LIG1        0.0624
     37 H           4.2991   -3.7119   -3.2446 H       1  LIG1        0.0624
     38 H          -1.0953   -4.4820   -4.1860 H       1  LIG1        0.0830
     39 H           4.2329    3.1150   -2.1597 H       1  LIG1        0.0848
     40 H           3.3861   -7.6537   -0.3785 H       1  LIG1        0.0620
     41 H           6.1164   -5.2564   -2.6879 H       1  LIG1        0.0620
     42 H           1.5823   -1.8127   -6.2452 H       1  LIG1        0.0660
     43 H           2.4871   -0.3209   -6.5301 H       1  LIG1        0.0660
     44 H           0.9003   -0.2871   -5.6681 H       1  LIG1        0.0660
     45 H           2.0952    3.6435   -5.2644 H       1  LIG1        0.0293
     46 H           3.5868    4.3133   -4.5795 H       1  LIG1        0.0293
     47 H           2.0928    4.2639   -3.6053 H       1  LIG1        0.0293
     48 H           6.3394   -7.9607   -2.1560 H       1  LIG1        0.0322
     49 H           5.5376   -8.4312   -0.6906 H       1  LIG1        0.0322
     50 H           5.9907   -7.0030    1.5045 H       1  LIG1        0.0239
     51 H           6.2212   -5.4225    0.7332 H       1  LIG1        0.0239
     52 H           7.5417   -6.1684    1.6289 H       1  LIG1        0.0239
     53 H           7.4576   -8.9801    0.7321 H       1  LIG1        0.0239
     54 H           8.9325   -8.0108    0.6220 H       1  LIG1        0.0239
     55 H           8.3433   -8.8912   -0.7932 H       1  LIG1        0.0239
@<TRIPOS>BOND
     1     1     5    2
     2     1     4    2
     3     1     3    1
     4     1     2    1
     5     2     6   ar
     6     2     7   ar
     7     3     8    1
     8     6    10   ar
     9     6     9    1
    10     7    11   ar
    11     8    12   ar
    12     8    13   ar
    13     9    14   ar
    14     9    15   ar
    15    10    16   ar
    16    11    16   ar
    17    12    17   ar
    18    12    18    1
    19    13    19   ar
    20    14    20   ar
    21    15    21   ar
    22    17    22   ar
    23    18    23    1
    24    19    22   ar
    25    20    24   ar
    26    21    24   ar
    27    22    25    1
    28    24    26    1
    29    26    27    1
    30    27    30    1
    31    27    29    1
    32    27    28    1
    33    28    32   ar
    34    28    31   ar
    35     3    33    1
    36     7    34    1
    37    11    35    1
    38    14    36    1
    39    15    37    1
    40    16    38    1
    41    19    39    1
    42    20    40    1
    43    21    41    1
    44    23    42    1
    45    23    43    1
    46    23    44    1
    47    25    45    1
    48    25    46    1
    49    25    47    1
    50    26    48    1
    51    26    49    1
    52    29    50    1
    53    29    51    1
    54    29    52    1
    55    30    53    1
    56    30    54    1
    57    30    55    1
@<TRIPOS>MOLECULE
01178588C
 55 57 0 0 0
SMALL
GASTEIGER

@<TRIPOS>ATOM
      1 S           2.9633   -1.5195   -1.2657 S.O2    1  LIG1        0.0756
      2 C           1.6284   -2.4431   -1.9741 C.ar    1  LIG1        0.1344
      3 N           4.3244   -2.0105   -2.1296 N.pl3   1  LIG1       -0.1951
      4 O           3.0620   -1.9028    0.1245 O.2     1  LIG1       -0.1499
      5 O           2.7142   -0.1303   -1.6082 O.2     1  LIG1       -0.1499
      6 C           1.6630   -3.8148   -2.2117 C.ar    1  LIG1        0.0975
      7 C           0.4898   -1.7121   -2.3643 C.ar    1  LIG1       -0.0315
      8 C           5.3298   -1.0100   -2.1841 C.ar    1  LIG1        0.2006
      9 C           2.7442   -4.7726   -1.8982 C.ar    1  LIG1        0.0023
     10 N           0.6120   -4.4280   -2.8421 N.ar    1  LIG1       -0.2530
     11 C          -0.5763   -2.3501   -2.9827 C.ar    1  LIG1       -0.0417
     12 C           6.0484   -0.5183   -1.0858 C.ar    1  LIG1        0.2574
     13 N           5.4414   -0.4910   -3.4268 N.ar    1  LIG1       -0.2325
     14 C           3.3210   -4.8943   -0.6272 C.ar    1  LIG1       -0.0523
     15 C           3.1659   -5.6924   -2.8792 C.ar    1  LIG1       -0.0523
     16 C          -0.4679   -3.7040   -3.2015 C.ar    1  LIG1        0.0284
     17 N           6.8912    0.5401   -1.2005 N.ar    1  LIG1       -0.2137
     18 O           5.9033   -1.1403    0.1338 O.3     1  LIG1       -0.4773
     19 C           6.2773    0.5703   -3.5210 C.ar    1  LIG1        0.0510
     20 C           4.3014   -5.8600   -0.3579 C.ar    1  LIG1       -0.0579
     21 C           4.1179   -6.6810   -2.6043 C.ar    1  LIG1       -0.0579
     22 C           6.9861    1.0868   -2.4373 C.ar    1  LIG1        0.0602
     23 C           6.6913   -0.5663    1.1674 C.3     1  LIG1        0.0805
     24 C           4.6944   -6.7776   -1.3356 C.ar    1  LIG1       -0.0465
     25 C           7.8464    2.3001   -2.5991 C.3     1  LIG1       -0.0208
     26 C           5.7115   -7.8630   -1.0347 C.3     1  LIG1       -0.0174
     27 C           5.2051   -9.1056   -0.2614 C.3     1  LIG1        0.0085
     28 C           6.3456  -10.1651   -0.1533 C.2     1  LIG1        0.0477
     29 C           4.8161   -8.7733    1.1855 C.3     1  LIG1       -0.0544
     30 C           4.0349   -9.7931   -0.9775 C.3     1  LIG1       -0.0544
     31 O           6.0340  -11.2574    0.4065 O.co2   1  LIG1       -0.5493
     32 O           7.4671   -9.8289   -0.6295 O.co2   1  LIG1       -0.5493
     33 H           4.1190   -2.3332   -3.0715 H       1  LIG1        0.1754
     34 H           0.4282   -0.6393   -2.1895 H       1  LIG1        0.0638
     35 H          -1.4606   -1.8032   -3.2883 H       1  LIG1        0.0633
     36 H           2.9985   -4.2696    0.2010 H       1  LIG1        0.0624
     37 H           2.7160   -5.6714   -3.8706 H       1  LIG1        0.0624
     38 H          -1.2618   -4.2660   -3.6847 H       1  LIG1        0.0830
     39 H           6.3532    1.0140   -4.5087 H       1  LIG1        0.0848
     40 H           4.7365   -5.9097    0.6382 H       1  LIG1        0.0620
     41 H           4.3917   -7.3916   -3.3812 H       1  LIG1        0.0620
     42 H           6.5123   -1.1400    2.0818 H       1  LIG1        0.0660
     43 H           6.3958    0.4705    1.3612 H       1  LIG1        0.0660
     44 H           7.7604   -0.6335    0.9376 H       1  LIG1        0.0660
     45 H           8.4334    2.4846   -1.6935 H       1  LIG1        0.0293
     46 H           7.2217    3.1793   -2.7862 H       1  LIG1        0.0293
     47 H           8.5421    2.1703   -3.4336 H       1  LIG1        0.0293
     48 H           6.5434   -7.3945   -0.4898 H       1  LIG1        0.0322
     49 H           6.1474   -8.1825   -1.9924 H       1  LIG1        0.0322
     50 H           3.9227   -8.1424    1.2273 H       1  LIG1        0.0239
     51 H           5.6289   -8.2496    1.7019 H       1  LIG1        0.0239
     52 H           4.5876   -9.6714    1.7709 H       1  LIG1        0.0239
     53 H           3.1625   -9.1347   -1.0462 H       1  LIG1        0.0239
     54 H           3.7045  -10.6961   -0.4507 H       1  LIG1        0.0239
     55 H           4.3159  -10.0934   -1.9932 H       1  LIG1        0.0239
@<TRIPOS>BOND
     1     1     5    2
     2     1     4    2
     3     1     3    1
     4     1     2    1
     5     2     6   ar
     6     2     7   ar
     7     3     8    1
     8     6    10   ar
     9     6     9    1
    10     7    11   ar
    11     8    12   ar
    12     8    13   ar
    13     9    14   ar
    14     9    15   ar
    15    10    16   ar
    16    11    16   ar
    17    12    17   ar
    18    12    18    1
    19    13    19   ar
    20    14    20   ar
    21    15    21   ar
    22    17    22   ar
    23    18    23    1
    24    19    22   ar
    25    20    24   ar
    26    21    24   ar
    27    22    25    1
    28    24    26    1
    29    26    27    1
    30    27    30    1
    31    27    29    1
    32    27    28    1
    33    28    32   ar
    34    28    31   ar
    35     3    33    1
    36     7    34    1
    37    11    35    1
    38    14    36    1
    39    15    37    1
    40    16    38    1
    41    19    39    1
    42    20    40    1
    43    21    41    1
    44    23    42    1
    45    23    43    1
    46    23    44    1
    47    25    45    1
    48    25    46    1
    49    25    47    1
    50    26    48    1
    51    26    49    1
    52    29    50    1
    53    29    51    1
    54    29    52    1
    55    30    53    1
    56    30    54    1
    57    30    55    1
@<TRIPOS>MOLECULE
01178588C
 55 57 0 0 0
SMALL
GASTEIGER

@<TRIPOS>ATOM
      1 S           2.9597   -1.5747   -1.2150 S.O2    1  LIG1        0.0756
      2 C           1.6204   -2.4789   -1.9377 C.ar    1  LIG1        0.1344
      3 N           4.3197   -2.0577   -2.0809 N.pl3   1  LIG1       -0.1951
      4 O           3.0518   -1.9855    0.1678 O.2     1  LIG1       -0.1499
      5 O           2.7166   -0.1797   -1.5302 O.2     1  LIG1       -0.1499
      6 C           1.6426   -3.8489   -2.1872 C.ar    1  LIG1        0.0975
      7 C           0.4854   -1.7351   -2.3176 C.ar    1  LIG1       -0.0315
      8 C           5.3183   -1.0519   -2.1490 C.ar    1  LIG1        0.2006
      9 C           2.7306   -4.8122   -1.9159 C.ar    1  LIG1        0.0023
     10 N           0.5795   -4.4499   -2.8091 N.ar    1  LIG1       -0.2530
     11 C          -0.5884   -2.3605   -2.9357 C.ar    1  LIG1       -0.0417
     12 C           6.0325   -0.5414   -1.0563 C.ar    1  LIG1        0.2574
     13 N           5.4273   -0.5491   -3.3980 N.ar    1  LIG1       -0.2325
     14 C           3.3416   -4.9632   -0.6636 C.ar    1  LIG1       -0.0523
     15 C           3.1285   -5.7053   -2.9310 C.ar    1  LIG1       -0.0523
     16 C          -0.4958   -3.7138   -3.1591 C.ar    1  LIG1        0.0284
     17 N           6.8689    0.5213   -1.1846 N.ar    1  LIG1       -0.2137
     18 O           5.8814   -1.1400    0.1739 O.3     1  LIG1       -0.4773
     19 C           6.2601    0.5134   -3.5067 C.ar    1  LIG1        0.0510
     20 C           4.3373   -5.9273   -0.4490 C.ar    1  LIG1       -0.0579
     21 C           4.0951   -6.6910   -2.7108 C.ar    1  LIG1       -0.0579
     22 C           6.9650    1.0489   -2.4295 C.ar    1  LIG1        0.0602
     23 C           6.7107   -0.5861    1.1860 C.3     1  LIG1        0.0805
     24 C           4.7204   -6.8051   -1.4689 C.ar    1  LIG1       -0.0465
     25 C           7.8210    2.2633   -2.6076 C.3     1  LIG1       -0.0208
     26 C           5.7524   -7.8871   -1.2114 C.3     1  LIG1       -0.0174
     27 C           7.1698   -7.6263   -1.7678 C.3     1  LIG1        0.0085
     28 C           7.9559   -8.8529   -1.2205 C.2     1  LIG1        0.0477
     29 C           7.2237   -7.6287   -3.3002 C.3     1  LIG1       -0.0544
     30 C           7.7763   -6.3235   -1.2363 C.3     1  LIG1       -0.0544
     31 O           8.4895   -8.7040   -0.0835 O.co2   1  LIG1       -0.5493
     32 O           7.9511   -9.8829   -1.9552 O.co2   1  LIG1       -0.5493
     33 H           4.1193   -2.4014   -3.0177 H       1  LIG1        0.1754
     34 H           0.4354   -0.6641   -2.1371 H       1  LIG1        0.0638
     35 H          -1.4679   -1.8025   -3.2362 H       1  LIG1        0.0633
     36 H           3.0380   -4.3612    0.1879 H       1  LIG1        0.0624
     37 H           2.6504   -5.6633   -3.9083 H       1  LIG1        0.0624
     38 H          -1.2974   -4.2662   -3.6403 H       1  LIG1        0.0830
     39 H           6.3366    0.9427   -4.5006 H       1  LIG1        0.0848
     40 H           4.7979   -6.0065    0.5343 H       1  LIG1        0.0620
     41 H           4.3453   -7.3833   -3.5114 H       1  LIG1        0.0620
     42 H           6.5397   -1.1533    2.1060 H       1  LIG1        0.0660
     43 H           6.4476    0.4585    1.3851 H       1  LIG1        0.0660
     44 H           7.7718   -0.6815    0.9300 H       1  LIG1        0.0660
     45 H           8.4084    2.4609   -1.7050 H       1  LIG1        0.0293
     46 H           7.1928    3.1378   -2.8047 H       1  LIG1        0.0293
     47 H           8.5160    2.1254   -3.4413 H       1  LIG1        0.0293
     48 H           5.3526   -8.8290   -1.6146 H       1  LIG1        0.0322
     49 H           5.8022   -8.0548   -0.1254 H       1  LIG1        0.0322
     50 H           6.7892   -6.7161   -3.7213 H       1  LIG1        0.0239
     51 H           6.6813   -8.4806   -3.7262 H       1  LIG1        0.0239
     52 H           8.2587   -7.6891   -3.6569 H       1  LIG1        0.0239
     53 H           7.2862   -5.4458   -1.6720 H       1  LIG1        0.0239
     54 H           8.8429   -6.2605   -1.4821 H       1  LIG1        0.0239
     55 H           7.6849   -6.2447   -0.1473 H       1  LIG1        0.0239
@<TRIPOS>BOND
     1     1     5    2
     2     1     4    2
     3     1     3    1
     4     1     2    1
     5     2     6   ar
     6     2     7   ar
     7     3     8    1
     8     6    10   ar
     9     6     9    1
    10     7    11   ar
    11     8    12   ar
    12     8    13   ar
    13     9    14   ar
    14     9    15   ar
    15    10    16   ar
    16    11    16   ar
    17    12    17   ar
    18    12    18    1
    19    13    19   ar
    20    14    20   ar
    21    15    21   ar
    22    17    22   ar
    23    18    23    1
    24    19    22   ar
    25    20    24   ar
    26    21    24   ar
    27    22    25    1
    28    24    26    1
    29    26    27    1
    30    27    30    1
    31    27    29    1
    32    27    28    1
    33    28    32   ar
    34    28    31   ar
    35     3    33    1
    36     7    34    1
    37    11    35    1
    38    14    36    1
    39    15    37    1
    40    16    38    1
    41    19    39    1
    42    20    40    1
    43    21    41    1
    44    23    42    1
    45    23    43    1
    46    23    44    1
    47    25    45    1
    48    25    46    1
    49    25    47    1
    50    26    48    1
    51    26    49    1
    52    29    50    1
    53    29    51    1
    54    29    52    1
    55    30    53    1
    56    30    54    1
    57    30    55    1
@<TRIPOS>MOLECULE
01178588C
 55 57 0 0 0
SMALL
GASTEIGER

@<TRIPOS>ATOM
      1 S           2.8486   -1.5851   -1.1659 S.O2    1  LIG1        0.0756
      2 C           1.6763   -2.4540   -2.1606 C.ar    1  LIG1        0.1344
      3 N           4.0561   -1.1311   -2.2560 N.pl3   1  LIG1       -0.1951
      4 O           3.4617   -2.4871   -0.2231 O.2     1  LIG1       -0.1499
      5 O           2.2159   -0.3766   -0.6695 O.2     1  LIG1       -0.1499
      6 C           1.7414   -3.8140   -2.4586 C.ar    1  LIG1        0.0975
      7 C           0.5513   -1.7171   -2.5813 C.ar    1  LIG1       -0.0315
      8 C           3.7561    0.0298   -3.0147 C.ar    1  LIG1        0.2006
      9 C           2.7880   -4.7917   -2.0831 C.ar    1  LIG1        0.0023
     10 N           0.7294   -4.4056   -3.1715 N.ar    1  LIG1       -0.2530
     11 C          -0.4646   -2.3295   -3.2990 C.ar    1  LIG1       -0.0417
     12 C           4.1115    1.3183   -2.5948 C.ar    1  LIG1        0.2574
     13 N           3.0278   -0.1914   -4.1273 N.ar    1  LIG1       -0.2325
     14 C           2.4135   -6.0411   -1.5512 C.ar    1  LIG1       -0.0523
     15 C           4.1585   -4.5805   -2.2832 C.ar    1  LIG1       -0.0523
     16 C          -0.3301   -3.6714   -3.5683 C.ar    1  LIG1        0.0284
     17 N           3.7871    2.4264   -3.3074 N.ar    1  LIG1       -0.2137
     18 O           4.8561    1.4383   -1.4366 O.3     1  LIG1       -0.4773
     19 C           2.7070    0.9199   -4.8320 C.ar    1  LIG1        0.0510
     20 C           3.3577   -7.0111   -1.1889 C.ar    1  LIG1       -0.0579
     21 C           5.1096   -5.5422   -1.9026 C.ar    1  LIG1       -0.0579
     22 C           3.0725    2.2066   -4.4391 C.ar    1  LIG1        0.0602
     23 C           5.0084    2.7900   -1.0175 C.3     1  LIG1        0.0805
     24 C           4.7223   -6.7743   -1.3562 C.ar    1  LIG1       -0.0465
     25 C           2.6892    3.3942   -5.2656 C.3     1  LIG1       -0.0208
     26 C           5.7750   -7.7640   -0.8855 C.3     1  LIG1       -0.0174
     27 C           5.6334   -9.2537   -1.2826 C.3     1  LIG1        0.0085
     28 C           4.5706  -10.0039   -0.4375 C.2     1  LIG1        0.0477
     29 C           5.4362   -9.4213   -2.7938 C.3     1  LIG1       -0.0544
     30 C           6.9245   -9.9984   -0.8760 C.3     1  LIG1       -0.0544
     31 O           4.5381   -9.7113    0.7929 O.co2   1  LIG1       -0.5493
     32 O           3.8605  -10.8445   -1.0600 O.co2   1  LIG1       -0.5493
     33 H           4.9396   -1.0865   -1.7496 H       1  LIG1        0.1754
     34 H           0.4626   -0.6581   -2.3460 H       1  LIG1        0.0638
     35 H          -1.3359   -1.7761   -3.6274 H       1  LIG1        0.0633
     36 H           1.3600   -6.2805   -1.4132 H       1  LIG1        0.0624
     37 H           4.5170   -3.6642   -2.7388 H       1  LIG1        0.0624
     38 H          -1.0895   -4.2182   -4.1188 H       1  LIG1        0.0830
     39 H           2.1382    0.7443   -5.7398 H       1  LIG1        0.0848
     40 H           3.0033   -7.9485   -0.7643 H       1  LIG1        0.0620
     41 H           6.1652   -5.3169   -2.0319 H       1  LIG1        0.0620
     42 H           5.5160    2.7835   -0.0483 H       1  LIG1        0.0660
     43 H           4.0392    3.2834   -0.8808 H       1  LIG1        0.0660
     44 H           5.6372    3.3477   -1.7201 H       1  LIG1        0.0660
     45 H           3.0364    4.3208   -4.7971 H       1  LIG1        0.0293
     46 H           1.6011    3.4527   -5.3680 H       1  LIG1        0.0293
     47 H           3.1402    3.3262   -6.2604 H       1  LIG1        0.0293
     48 H           5.8475   -7.6573    0.2049 H       1  LIG1        0.0322
     49 H           6.7453   -7.4173   -1.2701 H       1  LIG1        0.0322
     50 H           6.2224   -8.9033   -3.3542 H       1  LIG1        0.0239
     51 H           4.4688   -9.0281   -3.1229 H       1  LIG1        0.0239
     52 H           5.4686  -10.4770   -3.0890 H       1  LIG1        0.0239
     53 H           7.7888   -9.6200   -1.4338 H       1  LIG1        0.0239
     54 H           6.8502  -11.0747   -1.0751 H       1  LIG1        0.0239
     55 H           7.1466   -9.8779    0.1912 H       1  LIG1        0.0239
@<TRIPOS>BOND
     1     1     5    2
     2     1     4    2
     3     1     3    1
     4     1     2    1
     5     2     6   ar
     6     2     7   ar
     7     3     8    1
     8     6    10   ar
     9     6     9    1
    10     7    11   ar
    11     8    12   ar
    12     8    13   ar
    13     9    14   ar
    14     9    15   ar
    15    10    16   ar
    16    11    16   ar
    17    12    17   ar
    18    12    18    1
    19    13    19   ar
    20    14    20   ar
    21    15    21   ar
    22    17    22   ar
    23    18    23    1
    24    19    22   ar
    25    20    24   ar
    26    21    24   ar
    27    22    25    1
    28    24    26    1
    29    26    27    1
    30    27    30    1
    31    27    29    1
    32    27    28    1
    33    28    32   ar
    34    28    31   ar
    35     3    33    1
    36     7    34    1
    37    11    35    1
    38    14    36    1
    39    15    37    1
    40    16    38    1
    41    19    39    1
    42    20    40    1
    43    21    41    1
    44    23    42    1
    45    23    43    1
    46    23    44    1
    47    25    45    1
    48    25    46    1
    49    25    47    1
    50    26    48    1
    51    26    49    1
    52    29    50    1
    53    29    51    1
    54    29    52    1
    55    30    53    1
    56    30    54    1
    57    30    55    1
@<TRIPOS>MOLECULE
01178588C
 55 57 0 0 0
SMALL
GASTEIGER

@<TRIPOS>ATOM
      1 S           2.9469   -1.5485   -1.2463 S.O2    1  LIG1        0.0756
      2 C           1.6069   -2.4564   -1.9644 C.ar    1  LIG1        0.1344
      3 N           4.3064   -2.0392   -2.1087 N.pl3   1  LIG1       -0.1951
      4 O           3.0367   -1.9473    0.1396 O.2     1  LIG1       -0.1499
      5 O           2.7047   -0.1539   -1.5751 O.2     1  LIG1       -0.1499
      6 C           1.6294   -3.8278   -2.2037 C.ar    1  LIG1        0.0975
      7 C           0.4728   -1.7160   -2.3500 C.ar    1  LIG1       -0.0315
      8 C           5.3116   -1.0400   -2.1706 C.ar    1  LIG1        0.2006
      9 C           2.7160   -4.7896   -1.9217 C.ar    1  LIG1        0.0023
     10 N           0.5666   -4.4340   -2.8224 N.ar    1  LIG1       -0.2530
     11 C          -0.6016   -2.3449   -2.9633 C.ar    1  LIG1       -0.0417
     12 C           6.0264   -0.5354   -1.0750 C.ar    1  LIG1        0.2574
     13 N           5.4270   -0.5331   -3.4184 N.ar    1  LIG1       -0.2325
     14 C           3.3223   -4.9315   -0.6662 C.ar    1  LIG1       -0.0523
     15 C           3.1156   -5.6922   -2.9275 C.ar    1  LIG1       -0.0523
     16 C          -0.5080   -3.7006   -3.1774 C.ar    1  LIG1        0.0284
     17 N           6.8684    0.5228   -1.1976 N.ar    1  LIG1       -0.2137
     18 O           5.8702   -1.1382    0.1529 O.3     1  LIG1       -0.4773
     19 C           6.2666    0.5246   -3.5219 C.ar    1  LIG1        0.0510
     20 C           4.3155   -5.8960   -0.4397 C.ar    1  LIG1       -0.0579
     21 C           4.0792   -6.6789   -2.6947 C.ar    1  LIG1       -0.0579
     22 C           6.9712    1.0531   -2.4411 C.ar    1  LIG1        0.0602
     23 C           6.6964   -0.5882    1.1695 C.3     1  LIG1        0.0805
     24 C           4.7014   -6.7828   -1.4504 C.ar    1  LIG1       -0.0465
     25 C           7.8344    2.2628   -2.6139 C.3     1  LIG1       -0.0208
     26 C           5.7242   -7.8706   -1.1767 C.3     1  LIG1       -0.0174
     27 C           7.1475   -7.6577   -1.7414 C.3     1  LIG1        0.0085
     28 C           8.0731   -8.8265   -1.2824 C.2     1  LIG1        0.0477
     29 C           7.1876   -7.7158   -3.2741 C.3     1  LIG1       -0.0544
     30 C           7.7656   -6.3464   -1.2428 C.3     1  LIG1       -0.0544
     31 O           7.5027   -9.8105   -0.7335 O.co2   1  LIG1       -0.5493
     32 O           9.3075   -8.6778   -1.5249 O.co2   1  LIG1       -0.5493
     33 H           4.1076   -2.3771   -3.0467 H       1  LIG1        0.1754
     34 H           0.4217   -0.6425   -2.1761 H       1  LIG1        0.0638
     35 H          -1.4817   -1.7898   -3.2672 H       1  LIG1        0.0633
     36 H           3.0153   -4.3229    0.1793 H       1  LIG1        0.0624
     37 H           2.6402   -5.6580   -3.9066 H       1  LIG1        0.0624
     38 H          -1.3101   -4.2562   -3.6551 H       1  LIG1        0.0830
     39 H           6.3489    0.9550   -4.5142 H       1  LIG1        0.0848
     40 H           4.7684   -5.9694    0.5471 H       1  LIG1        0.0620
     41 H           4.3254   -7.3806   -3.4875 H       1  LIG1        0.0620
     42 H           6.5195   -1.1562    2.0880 H       1  LIG1        0.0660
     43 H           6.4355    0.4570    1.3692 H       1  LIG1        0.0660
     44 H           7.7583   -0.6865    0.9181 H       1  LIG1        0.0660
     45 H           8.4201    2.4554   -1.7082 H       1  LIG1        0.0293
     46 H           7.2128    3.1408   -2.8118 H       1  LIG1        0.0293
     47 H           8.5329    2.1219   -3.4449 H       1  LIG1        0.0293
     48 H           5.3034   -8.8134   -1.5557 H       1  LIG1        0.0322
     49 H           5.7845   -8.0095   -0.0874 H       1  LIG1        0.0322
     50 H           6.6863   -6.8526   -3.7228 H       1  LIG1        0.0239
     51 H           6.7027   -8.6250   -3.6486 H       1  LIG1        0.0239
     52 H           8.2134   -7.7149   -3.6610 H       1  LIG1        0.0239
     53 H           7.1881   -5.4768   -1.5751 H       1  LIG1        0.0239
     54 H           8.7870   -6.2050   -1.6153 H       1  LIG1        0.0239
     55 H           7.8121   -6.3251   -0.1480 H       1  LIG1        0.0239
@<TRIPOS>BOND
     1     1     5    2
     2     1     4    2
     3     1     3    1
     4     1     2    1
     5     2     6   ar
     6     2     7   ar
     7     3     8    1
     8     6    10   ar
     9     6     9    1
    10     7    11   ar
    11     8    12   ar
    12     8    13   ar
    13     9    14   ar
    14     9    15   ar
    15    10    16   ar
    16    11    16   ar
    17    12    17   ar
    18    12    18    1
    19    13    19   ar
    20    14    20   ar
    21    15    21   ar
    22    17    22   ar
    23    18    23    1
    24    19    22   ar
    25    20    24   ar
    26    21    24   ar
    27    22    25    1
    28    24    26    1
    29    26    27    1
    30    27    30    1
    31    27    29    1
    32    27    28    1
    33    28    32   ar
    34    28    31   ar
    35     3    33    1
    36     7    34    1
    37    11    35    1
    38    14    36    1
    39    15    37    1
    40    16    38    1
    41    19    39    1
    42    20    40    1
    43    21    41    1
    44    23    42    1
    45    23    43    1
    46    23    44    1
    47    25    45    1
    48    25    46    1
    49    25    47    1
    50    26    48    1
    51    26    49    1
    52    29    50    1
    53    29    51    1
    54    29    52    1
    55    30    53    1
    56    30    54    1
    57    30    55    1
