@<TRIPOS>MOLECULE
9910224
 46 49 0 0 0
SMALL
GASTEIGER

@<TRIPOS>ATOM
      1 S           1.3353   -1.5210    1.8604 S.O2    1  LIG1        0.0756
      2 O           2.3708   -2.2158    2.6011 O.2     1  LIG1       -0.1499
      3 O          -0.0475   -1.7080    2.2353 O.2     1  LIG1       -0.1499
      4 O           3.4065    0.3471   -0.3221 O.3     1  LIG1       -0.4773
      5 O          -4.9766    1.3561    0.9088 O.2     1  LIG1       -0.4229
      6 N           1.6417    0.1380    1.9434 N.pl3   1  LIG1       -0.1951
      7 N           0.7249   -2.1394   -2.1006 N.ar    1  LIG1       -0.2530
      8 N           3.3830    0.7916    3.2916 N.ar    1  LIG1       -0.2325
      9 N           5.2161    0.8173    1.1168 N.ar    1  LIG1       -0.2137
     10 N          -5.9148    0.0555   -0.6516 N.ar    1  LIG1       -0.1076
     11 N          -6.9195    0.7731   -0.0345 N.ar    1  LIG1       -0.1156
     12 C           1.5144   -1.9500    0.1563 C.ar    1  LIG1        0.1344
     13 C           0.5362   -1.7213   -0.8094 C.ar    1  LIG1        0.0975
     14 C          -0.7981   -1.1160   -0.6219 C.ar    1  LIG1        0.0023
     15 C           2.6738   -2.6619   -0.2076 C.ar    1  LIG1       -0.0315
     16 C          -1.0063    0.1503   -0.0571 C.ar    1  LIG1       -0.0518
     17 C          -1.9365   -1.8111   -1.0758 C.ar    1  LIG1       -0.0518
     18 C           3.0072    0.5094    2.0289 C.ar    1  LIG1        0.2006
     19 C          -3.4273   -0.0649   -0.2854 C.ar    1  LIG1        0.0385
     20 C          -2.3021    0.6575    0.1337 C.ar    1  LIG1       -0.0488
     21 C          -3.2262   -1.2931   -0.9204 C.ar    1  LIG1       -0.0488
     22 C           2.8512   -3.0886   -1.5158 C.ar    1  LIG1       -0.0417
     23 C           1.8569   -2.7985   -2.4232 C.ar    1  LIG1        0.0284
     24 C           3.9004    0.5382    0.9505 C.ar    1  LIG1        0.2574
     25 C          -4.7842    0.4203   -0.0776 C.ar    1  LIG1        0.2480
     26 C           5.6103    1.0673    2.3903 C.ar    1  LIG1        0.0602
     27 C           4.7020    1.0610    3.4475 C.ar    1  LIG1        0.0510
     28 C           7.0603    1.3531    2.6312 C.3     1  LIG1       -0.0208
     29 C           4.4068    0.4009   -1.3342 C.3     1  LIG1        0.0805
     30 C          -6.3289    1.5076    0.8771 C.ar    1  LIG1        0.2047
     31 H           1.1088    0.5249    2.7214 H       1  LIG1        0.1754
     32 H           3.4433   -2.8904    0.5282 H       1  LIG1        0.0638
     33 H          -0.1645    0.7667    0.2414 H       1  LIG1        0.0624
     34 H          -1.8176   -2.7771   -1.5645 H       1  LIG1        0.0624
     35 H          -2.4189    1.6296    0.6078 H       1  LIG1        0.0625
     36 H          -4.0745   -1.8711   -1.2856 H       1  LIG1        0.0625
     37 H           3.7393   -3.6361   -1.8132 H       1  LIG1        0.0633
     38 H           1.9349   -3.1058   -3.4624 H       1  LIG1        0.0830
     39 H           5.0173    1.2686    4.4652 H       1  LIG1        0.0848
     40 H           7.6252    1.3132    1.6937 H       1  LIG1        0.0293
     41 H           7.4835    0.6114    3.3145 H       1  LIG1        0.0293
     42 H           7.1839    2.3519    3.0611 H       1  LIG1        0.0293
     43 H           3.9183    0.2149   -2.2953 H       1  LIG1        0.0660
     44 H           5.1616   -0.3799   -1.1883 H       1  LIG1        0.0660
     45 H           4.8701    1.3920   -1.3820 H       1  LIG1        0.0660
     46 H          -6.7703    2.1914    1.5851 H       1  LIG1        0.1272
@<TRIPOS>BOND
     1     1     2    2
     2     1     3    2
     3     1     6    1
     4     1    12    1
     5     4    24    1
     6     4    29    1
     7     5    25   ar
     8     5    30   ar
     9     6    18    1
    10     7    13   ar
    11     7    23   ar
    12     8    18   ar
    13     8    27   ar
    14     9    24   ar
    15     9    26   ar
    16    10    11   ar
    17    10    25   ar
    18    11    30   ar
    19    12    13   ar
    20    12    15   ar
    21    13    14    1
    22    14    16   ar
    23    14    17   ar
    24    15    22   ar
    25    16    20   ar
    26    17    21   ar
    27    18    24   ar
    28    19    20   ar
    29    19    21   ar
    30    19    25    1
    31    22    23   ar
    32    26    27   ar
    33    26    28    1
    34     6    31    1
    35    15    32    1
    36    16    33    1
    37    17    34    1
    38    20    35    1
    39    21    36    1
    40    22    37    1
    41    23    38    1
    42    27    39    1
    43    28    40    1
    44    28    41    1
    45    28    42    1
    46    29    43    1
    47    29    44    1
    48    29    45    1
    49    30    46    1
@<TRIPOS>MOLECULE
9910224
 46 49 0 0 0
SMALL
GASTEIGER

@<TRIPOS>ATOM
      1 S           1.2965   -1.4303    1.8964 S.O2    1  LIG1        0.0756
      2 O           2.3059   -2.1224    2.6749 O.2     1  LIG1       -0.1499
      3 O          -0.0928   -1.5589    2.2688 O.2     1  LIG1       -0.1499
      4 O           3.4534    0.3438   -0.3693 O.3     1  LIG1       -0.4773
      5 O          -5.8863   -0.3427   -0.4017 O.2     1  LIG1       -0.4229
      6 N           1.6577    0.2209    1.8940 N.pl3   1  LIG1       -0.1951
      7 N           0.7273   -2.2374   -2.0445 N.ar    1  LIG1       -0.2530
      8 N           3.4065    0.8385    3.2405 N.ar    1  LIG1       -0.2325
      9 N           5.2568    0.7983    1.0808 N.ar    1  LIG1       -0.2137
     10 N          -5.1720    1.6122    0.4145 N.ar    1  LIG1       -0.1076
     11 N          -6.5449    1.6121    0.4683 N.ar    1  LIG1       -0.1156
     12 C           1.4817   -1.9318    0.2078 C.ar    1  LIG1        0.1344
     13 C           0.5051   -1.7659   -0.7761 C.ar    1  LIG1        0.0975
     14 C          -0.8376   -1.1487   -0.6433 C.ar    1  LIG1        0.0023
     15 C           2.6655   -2.6228   -0.1091 C.ar    1  LIG1       -0.0315
     16 C          -1.0693    0.0678    0.0103 C.ar    1  LIG1       -0.0518
     17 C          -1.9618   -1.7716   -1.2255 C.ar    1  LIG1       -0.0518
     18 C           3.0338    0.5543    1.9778 C.ar    1  LIG1        0.2006
     19 C          -3.4780   -0.0888   -0.3396 C.ar    1  LIG1        0.0385
     20 C          -2.3657    0.5711    0.1919 C.ar    1  LIG1       -0.0488
     21 C          -3.2588   -1.2512   -1.0836 C.ar    1  LIG1       -0.0488
     22 C           2.8810   -3.0865   -1.3987 C.ar    1  LIG1       -0.0417
     23 C           1.8869   -2.8668   -2.3270 C.ar    1  LIG1        0.0284
     24 C           3.9357    0.5467    0.9065 C.ar    1  LIG1        0.2574
     25 C          -4.8065    0.4532   -0.1023 C.ar    1  LIG1        0.2480
     26 C           5.6469    1.0570    2.3543 C.ar    1  LIG1        0.0602
     27 C           4.7306    1.0776    3.4042 C.ar    1  LIG1        0.0510
     28 C           7.0973    1.3247    2.6042 C.3     1  LIG1       -0.0208
     29 C           4.4673    0.3707   -1.3698 C.3     1  LIG1        0.0805
     30 C          -6.9238    0.4471   -0.0088 C.ar    1  LIG1        0.2047
     31 H           1.1256    0.6720    2.6348 H       1  LIG1        0.1754
     32 H           3.4336   -2.7918    0.6397 H       1  LIG1        0.0638
     33 H          -0.2493    0.6525    0.4061 H       1  LIG1        0.0624
     34 H          -1.8305   -2.6858   -1.8038 H       1  LIG1        0.0624
     35 H          -2.4964    1.4863    0.7669 H       1  LIG1        0.0625
     36 H          -4.0866   -1.7741   -1.5560 H       1  LIG1        0.0625
     37 H           3.7979   -3.6030   -1.6637 H       1  LIG1        0.0633
     38 H           1.9945   -3.2050   -3.3501 H       1  LIG1        0.0830
     39 H           5.0421    1.2859    4.4230 H       1  LIG1        0.0848
     40 H           7.6666    1.2877    1.6699 H       1  LIG1        0.0293
     41 H           7.5090    0.5730    3.2844 H       1  LIG1        0.0293
     42 H           7.2288    2.3182    3.0437 H       1  LIG1        0.0293
     43 H           3.9897    0.1760   -2.3357 H       1  LIG1        0.0660
     44 H           5.2125   -0.4149   -1.2043 H       1  LIG1        0.0660
     45 H           4.9427    1.3573   -1.4277 H       1  LIG1        0.0660
     46 H          -7.9212    0.0548   -0.1202 H       1  LIG1        0.1272
@<TRIPOS>BOND
     1     1     2    2
     2     1     3    2
     3     1     6    1
     4     1    12    1
     5     4    24    1
     6     4    29    1
     7     5    25   ar
     8     5    30   ar
     9     6    18    1
    10     7    13   ar
    11     7    23   ar
    12     8    18   ar
    13     8    27   ar
    14     9    24   ar
    15     9    26   ar
    16    10    11   ar
    17    10    25   ar
    18    11    30   ar
    19    12    13   ar
    20    12    15   ar
    21    13    14    1
    22    14    16   ar
    23    14    17   ar
    24    15    22   ar
    25    16    20   ar
    26    17    21   ar
    27    18    24   ar
    28    19    20   ar
    29    19    21   ar
    30    19    25    1
    31    22    23   ar
    32    26    27   ar
    33    26    28    1
    34     6    31    1
    35    15    32    1
    36    16    33    1
    37    17    34    1
    38    20    35    1
    39    21    36    1
    40    22    37    1
    41    23    38    1
    42    27    39    1
    43    28    40    1
    44    28    41    1
    45    28    42    1
    46    29    43    1
    47    29    44    1
    48    29    45    1
    49    30    46    1
@<TRIPOS>MOLECULE
9910224
 46 49 0 0 0
SMALL
GASTEIGER

@<TRIPOS>ATOM
      1 S           1.3541   -1.3830    1.8641 S.O2    1  LIG1        0.0756
      2 O           2.3831   -2.1020    2.5882 O.2     1  LIG1       -0.1499
      3 O          -0.0236   -1.5103    2.2810 O.2     1  LIG1       -0.1499
      4 O           4.5782   -0.0688    2.3476 O.3     1  LIG1       -0.4773
      5 O          -5.0775    1.3209    0.8768 O.2     1  LIG1       -0.4229
      6 N           1.7307    0.2597    1.9356 N.pl3   1  LIG1       -0.1951
      7 N           0.6506   -2.1565   -2.0665 N.ar    1  LIG1       -0.2530
      8 N           2.1892    1.2621   -0.0601 N.ar    1  LIG1       -0.2325
      9 N           4.9743    0.7848    0.1818 N.ar    1  LIG1       -0.2137
     10 N          -6.0162   -0.0337   -0.6362 N.ar    1  LIG1       -0.1076
     11 N          -7.0204    0.7056   -0.0437 N.ar    1  LIG1       -0.1156
     12 C           1.4913   -1.8541    0.1589 C.ar    1  LIG1        0.1344
     13 C           0.4724   -1.7115   -0.7828 C.ar    1  LIG1        0.0975
     14 C          -0.8784   -1.1448   -0.5896 C.ar    1  LIG1        0.0023
     15 C           2.6850   -2.4952   -0.2242 C.ar    1  LIG1       -0.0315
     16 C          -1.1118    0.1468   -0.0989 C.ar    1  LIG1       -0.0518
     17 C          -2.0066   -1.8874   -0.9866 C.ar    1  LIG1       -0.0518
     18 C           2.7313    0.7111    1.0456 C.ar    1  LIG1        0.2006
     19 C          -3.5263   -0.1297   -0.2728 C.ar    1  LIG1        0.0385
     20 C          -2.4127    0.6371    0.0878 C.ar    1  LIG1       -0.0488
     21 C          -3.3067   -1.3872   -0.8424 C.ar    1  LIG1       -0.0488
     22 C           2.8520   -2.9488   -1.5247 C.ar    1  LIG1       -0.0417
     23 C           1.8119   -2.7555   -2.4057 C.ar    1  LIG1        0.0284
     24 C           4.1043    0.4811    1.1785 C.ar    1  LIG1        0.2574
     25 C          -4.8858    0.3511   -0.0768 C.ar    1  LIG1        0.2480
     26 C           4.4338    1.3230   -0.9405 C.ar    1  LIG1        0.0602
     27 C           3.0666    1.5578   -1.0473 C.ar    1  LIG1        0.0510
     28 C           5.3473    1.6328   -2.0845 C.3     1  LIG1       -0.0208
     29 C           5.9983   -0.0833    2.4307 C.3     1  LIG1        0.0805
     30 C          -6.4296    1.4710    0.8417 C.ar    1  LIG1        0.2047
     31 H           0.8906    0.8290    1.9177 H       1  LIG1        0.1754
     32 H           3.4903   -2.6540    0.4927 H       1  LIG1        0.0638
     33 H          -0.2864    0.8098    0.1266 H       1  LIG1        0.0624
     34 H          -1.8734   -2.8737   -1.4299 H       1  LIG1        0.0624
     35 H          -2.5421    1.6346    0.5028 H       1  LIG1        0.0625
     36 H          -4.1474   -1.9978   -1.1681 H       1  LIG1        0.0625
     37 H           3.7631   -3.4489   -1.8330 H       1  LIG1        0.0633
     38 H           1.8759   -3.0937   -3.4359 H       1  LIG1        0.0830
     39 H           2.6305    1.9801   -1.9477 H       1  LIG1        0.0848
     40 H           6.3926    1.4728   -1.8024 H       1  LIG1        0.0293
     41 H           5.2333    2.6771   -2.3916 H       1  LIG1        0.0293
     42 H           5.1182    0.9821   -2.9344 H       1  LIG1        0.0293
     43 H           6.2721   -0.4709    3.4165 H       1  LIG1        0.0660
     44 H           6.4135    0.9275    2.3455 H       1  LIG1        0.0660
     45 H           6.4317   -0.7498    1.6770 H       1  LIG1        0.0660
     46 H          -6.8694    2.1796    1.5265 H       1  LIG1        0.1272
@<TRIPOS>BOND
     1     1     2    2
     2     1     3    2
     3     1     6    1
     4     1    12    1
     5     4    24    1
     6     4    29    1
     7     5    25   ar
     8     5    30   ar
     9     6    18    1
    10     7    13   ar
    11     7    23   ar
    12     8    18   ar
    13     8    27   ar
    14     9    24   ar
    15     9    26   ar
    16    10    11   ar
    17    10    25   ar
    18    11    30   ar
    19    12    13   ar
    20    12    15   ar
    21    13    14    1
    22    14    16   ar
    23    14    17   ar
    24    15    22   ar
    25    16    20   ar
    26    17    21   ar
    27    18    24   ar
    28    19    20   ar
    29    19    21   ar
    30    19    25    1
    31    22    23   ar
    32    26    27   ar
    33    26    28    1
    34     6    31    1
    35    15    32    1
    36    16    33    1
    37    17    34    1
    38    20    35    1
    39    21    36    1
    40    22    37    1
    41    23    38    1
    42    27    39    1
    43    28    40    1
    44    28    41    1
    45    28    42    1
    46    29    43    1
    47    29    44    1
    48    29    45    1
    49    30    46    1
@<TRIPOS>MOLECULE
9910224
 46 49 0 0 0
SMALL
GASTEIGER

@<TRIPOS>ATOM
      1 S           1.2932   -1.5709    1.8580 S.O2    1  LIG1        0.0756
      2 O           2.3161   -2.2547    2.6256 O.2     1  LIG1       -0.1499
      3 O          -0.0987   -1.7948    2.1851 O.2     1  LIG1       -0.1499
      4 O           2.5829    1.1131    4.3657 O.3     1  LIG1       -0.4773
      5 O          -5.7941   -0.2117   -0.6087 O.2     1  LIG1       -0.4229
      6 N           1.5531    0.0866    1.9798 N.pl3   1  LIG1       -0.1951
      7 N           0.7560   -2.1158   -2.1184 N.ar    1  LIG1       -0.2530
      8 N           3.6638    0.2861    0.9912 N.ar    1  LIG1       -0.2325
      9 N           4.7579    1.2681    3.4307 N.ar    1  LIG1       -0.2137
     10 N          -5.0878    1.6836    0.3466 N.ar    1  LIG1       -0.1076
     11 N          -6.4641    1.7425    0.2466 N.ar    1  LIG1       -0.1156
     12 C           1.5367   -1.9308    0.1455 C.ar    1  LIG1        0.1344
     13 C           0.5541   -1.7324   -0.8206 C.ar    1  LIG1        0.0975
     14 C          -0.7810   -1.1449   -0.6216 C.ar    1  LIG1        0.0023
     15 C           2.7408   -2.5486   -0.2294 C.ar    1  LIG1       -0.0315
     16 C          -1.9267   -1.8995   -0.9287 C.ar    1  LIG1       -0.0518
     17 C          -0.9680    0.1772   -0.1948 C.ar    1  LIG1       -0.0518
     18 C           2.9150    0.4655    2.0970 C.ar    1  LIG1        0.2006
     19 C          -3.3946   -0.0570   -0.3260 C.ar    1  LIG1        0.0385
     20 C          -3.2129   -1.3668   -0.7845 C.ar    1  LIG1       -0.0488
     21 C          -2.2561    0.7075   -0.0327 C.ar    1  LIG1       -0.0488
     22 C           2.9473   -2.9268   -1.5502 C.ar    1  LIG1       -0.0417
     23 C           1.9315   -2.6904   -2.4517 C.ar    1  LIG1        0.0284
     24 C           3.4484    0.9457    3.2996 C.ar    1  LIG1        0.2574
     25 C          -4.7218    0.5224   -0.1621 C.ar    1  LIG1        0.2480
     26 C           5.5211    1.0784    2.3251 C.ar    1  LIG1        0.0602
     27 C           4.9737    0.6035    1.1337 C.ar    1  LIG1        0.0510
     28 C           6.9798    1.4023    2.4157 C.3     1  LIG1       -0.0208
     29 C           3.2354    1.5923    5.5378 C.3     1  LIG1        0.0805
     30 C          -6.8323    0.6183   -0.3190 C.ar    1  LIG1        0.2047
     31 H           0.9459    0.4739    2.7024 H       1  LIG1        0.1754
     32 H           3.5217   -2.7336    0.5049 H       1  LIG1        0.0638
     33 H          -1.8162   -2.9183   -1.2981 H       1  LIG1        0.0624
     34 H          -0.1118    0.8183    0.0020 H       1  LIG1        0.0624
     35 H          -4.0661   -1.9923   -1.0381 H       1  LIG1        0.0625
     36 H          -2.3642    1.7345    0.3138 H       1  LIG1        0.0625
     37 H           3.8718   -3.3992   -1.8615 H       1  LIG1        0.0633
     38 H           2.0306   -2.9685   -3.4971 H       1  LIG1        0.0830
     39 H           5.5853    0.4591    0.2483 H       1  LIG1        0.0848
     40 H           7.2528    1.6861    3.4372 H       1  LIG1        0.0293
     41 H           7.2237    2.2367    1.7511 H       1  LIG1        0.0293
     42 H           7.5806    0.5315    2.1347 H       1  LIG1        0.0293
     43 H           2.4812    1.6829    6.3254 H       1  LIG1        0.0660
     44 H           3.6649    2.5869    5.3736 H       1  LIG1        0.0660
     45 H           3.9977    0.8865    5.8859 H       1  LIG1        0.0660
     46 H          -7.8248    0.2824   -0.5771 H       1  LIG1        0.1272
@<TRIPOS>BOND
     1     1     2    2
     2     1     3    2
     3     1     6    1
     4     1    12    1
     5     4    24    1
     6     4    29    1
     7     5    25   ar
     8     5    30   ar
     9     6    18    1
    10     7    13   ar
    11     7    23   ar
    12     8    18   ar
    13     8    27   ar
    14     9    24   ar
    15     9    26   ar
    16    10    11   ar
    17    10    25   ar
    18    11    30   ar
    19    12    13   ar
    20    12    15   ar
    21    13    14    1
    22    14    16   ar
    23    14    17   ar
    24    15    22   ar
    25    16    20   ar
    26    17    21   ar
    27    18    24   ar
    28    19    20   ar
    29    19    21   ar
    30    19    25    1
    31    22    23   ar
    32    26    27   ar
    33    26    28    1
    34     6    31    1
    35    15    32    1
    36    16    33    1
    37    17    34    1
    38    20    35    1
    39    21    36    1
    40    22    37    1
    41    23    38    1
    42    27    39    1
    43    28    40    1
    44    28    41    1
    45    28    42    1
    46    29    43    1
    47    29    44    1
    48    29    45    1
    49    30    46    1
@<TRIPOS>MOLECULE
9910224
 46 49 0 0 0
SMALL
GASTEIGER

@<TRIPOS>ATOM
      1 S           1.3766   -1.3793    1.8291 S.O2    1  LIG1        0.0756
      2 O           2.4255   -2.0651    2.5528 O.2     1  LIG1       -0.1499
      3 O           0.0045   -1.5425    2.2527 O.2     1  LIG1       -0.1499
      4 O           4.5502   -0.0496    2.3488 O.3     1  LIG1       -0.4773
      5 O          -5.9034   -0.4223   -0.3223 O.2     1  LIG1       -0.4229
      6 N           1.7040    0.2734    1.8669 N.pl3   1  LIG1       -0.1951
      7 N           0.6349   -2.1873   -2.0795 N.ar    1  LIG1       -0.2530
      8 N           2.2150    1.2890   -0.1077 N.ar    1  LIG1       -0.2325
      9 N           4.9937    0.8164    0.1988 N.ar    1  LIG1       -0.2137
     10 N          -5.2073    1.6140    0.2881 N.ar    1  LIG1       -0.1076
     11 N          -6.5879    1.6195    0.2803 N.ar    1  LIG1       -0.1156
     12 C           1.5156   -1.8638    0.1308 C.ar    1  LIG1        0.1344
     13 C           0.4799   -1.7450   -0.7933 C.ar    1  LIG1        0.0975
     14 C          -0.8629   -1.1878   -0.5654 C.ar    1  LIG1        0.0023
     15 C           2.7162   -2.4752   -0.2717 C.ar    1  LIG1       -0.0315
     16 C          -1.0809    0.1647   -0.2744 C.ar    1  LIG1       -0.0518
     17 C          -1.9931   -2.0076   -0.7242 C.ar    1  LIG1       -0.0518
     18 C           2.7287    0.7288    1.0062 C.ar    1  LIG1        0.2006
     19 C          -3.4978   -0.1586   -0.2384 C.ar    1  LIG1        0.0385
     20 C          -2.3762    0.6681   -0.0934 C.ar    1  LIG1       -0.0488
     21 C          -3.2901   -1.5030   -0.5663 C.ar    1  LIG1       -0.0488
     22 C           2.8689   -2.9215   -1.5776 C.ar    1  LIG1       -0.0417
     23 C           1.8067   -2.7552   -2.4398 C.ar    1  LIG1        0.0284
     24 C           4.1006    0.5034    1.1721 C.ar    1  LIG1        0.2574
     25 C          -4.8330    0.3996   -0.0678 C.ar    1  LIG1        0.2480
     26 C           4.4800    1.3649   -0.9309 C.ar    1  LIG1        0.0602
     27 C           3.1158    1.5995   -1.0681 C.ar    1  LIG1        0.0510
     28 C           5.4203    1.6859   -2.0502 C.3     1  LIG1       -0.0208
     29 C           5.9677   -0.1248    2.4375 C.3     1  LIG1        0.0805
     30 C          -6.9506    0.4130   -0.0827 C.ar    1  LIG1        0.2047
     31 H           0.8494    0.8166    1.7896 H       1  LIG1        0.1754
     32 H           3.5374   -2.6132    0.4308 H       1  LIG1        0.0638
     33 H          -0.2500    0.8599   -0.2178 H       1  LIG1        0.0624
     34 H          -1.8646   -3.0549   -0.9957 H       1  LIG1        0.0624
     35 H          -2.5036    1.7242    0.1438 H       1  LIG1        0.0625
     36 H          -4.1318   -2.1774   -0.7101 H       1  LIG1        0.0625
     37 H           3.7872   -3.3955   -1.9066 H       1  LIG1        0.0633
     38 H           1.8609   -3.0888   -3.4719 H       1  LIG1        0.0830
     39 H           2.7017    2.0346   -1.9732 H       1  LIG1        0.0848
     40 H           6.4580    1.5103   -1.7498 H       1  LIG1        0.0293
     41 H           5.3222    2.7361   -2.3414 H       1  LIG1        0.0293
     42 H           5.2027    1.0519   -2.9156 H       1  LIG1        0.0293
     43 H           6.2202   -0.5403    3.4178 H       1  LIG1        0.0660
     44 H           6.4231    0.8692    2.3715 H       1  LIG1        0.0660
     45 H           6.3777   -0.7959    1.6750 H       1  LIG1        0.0660
     46 H          -7.9448    0.0146   -0.2124 H       1  LIG1        0.1272
@<TRIPOS>BOND
     1     1     2    2
     2     1     3    2
     3     1     6    1
     4     1    12    1
     5     4    24    1
     6     4    29    1
     7     5    25   ar
     8     5    30   ar
     9     6    18    1
    10     7    13   ar
    11     7    23   ar
    12     8    18   ar
    13     8    27   ar
    14     9    24   ar
    15     9    26   ar
    16    10    11   ar
    17    10    25   ar
    18    11    30   ar
    19    12    13   ar
    20    12    15   ar
    21    13    14    1
    22    14    16   ar
    23    14    17   ar
    24    15    22   ar
    25    16    20   ar
    26    17    21   ar
    27    18    24   ar
    28    19    20   ar
    29    19    21   ar
    30    19    25    1
    31    22    23   ar
    32    26    27   ar
    33    26    28    1
    34     6    31    1
    35    15    32    1
    36    16    33    1
    37    17    34    1
    38    20    35    1
    39    21    36    1
    40    22    37    1
    41    23    38    1
    42    27    39    1
    43    28    40    1
    44    28    41    1
    45    28    42    1
    46    29    43    1
    47    29    44    1
    48    29    45    1
    49    30    46    1
@<TRIPOS>MOLECULE
9910224
 46 49 0 0 0
SMALL
GASTEIGER

@<TRIPOS>ATOM
      1 S           1.3507   -1.5688    1.8439 S.O2    1  LIG1        0.0756
      2 O           2.4027   -2.2478    2.5766 O.2     1  LIG1       -0.1499
      3 O          -0.0298   -1.7843    2.2191 O.2     1  LIG1       -0.1499
      4 O           3.3885    0.3469   -0.3224 O.3     1  LIG1       -0.4773
      5 O          -4.8570    1.6536    0.6508 O.2     1  LIG1       -0.4229
      6 N           1.6205    0.0968    1.9311 N.pl3   1  LIG1       -0.1951
      7 N           0.7228   -2.1516   -2.1151 N.ar    1  LIG1       -0.2530
      8 N           3.3461    0.7656    3.2944 N.ar    1  LIG1       -0.2325
      9 N           5.1880    0.8303    1.1268 N.ar    1  LIG1       -0.2137
     10 N          -5.8892   -0.0126   -0.4255 N.ar    1  LIG1       -0.1076
     11 N          -6.8560    0.8549    0.0413 N.ar    1  LIG1       -0.1156
     12 C           1.5316   -1.9858    0.1383 C.ar    1  LIG1        0.1344
     13 C           0.5480   -1.7501   -0.8192 C.ar    1  LIG1        0.0975
     14 C          -0.7751   -1.1383   -0.6053 C.ar    1  LIG1        0.0023
     15 C           2.6894   -2.6877   -0.2403 C.ar    1  LIG1       -0.0315
     16 C          -0.9481    0.1767   -0.1520 C.ar    1  LIG1       -0.0518
     17 C          -1.9316   -1.8739   -0.9202 C.ar    1  LIG1       -0.0518
     18 C           2.9795    0.4902    2.0272 C.ar    1  LIG1        0.2006
     19 C          -3.3782   -0.0400   -0.2485 C.ar    1  LIG1        0.0385
     20 C          -2.2313    0.7127    0.0418 C.ar    1  LIG1       -0.0488
     21 C          -3.2108   -1.3353   -0.7491 C.ar    1  LIG1       -0.0488
     22 C           2.8601   -3.0960   -1.5557 C.ar    1  LIG1       -0.0417
     23 C           1.8555   -2.8006   -2.4534 C.ar    1  LIG1        0.0284
     24 C           3.8761    0.5375    0.9532 C.ar    1  LIG1        0.2574
     25 C          -4.7241    0.4835   -0.0524 C.ar    1  LIG1        0.2480
     26 C           5.5743    1.0733    2.4037 C.ar    1  LIG1        0.0602
     27 C           4.6622    1.0469    3.4574 C.ar    1  LIG1        0.0510
     28 C           7.0193    1.3744    2.6523 C.3     1  LIG1       -0.0208
     29 C           4.3913    0.4193   -1.3306 C.3     1  LIG1        0.0805
     30 C          -6.2095    1.8073    0.6688 C.ar    1  LIG1        0.2047
     31 H           1.0713    0.4737    2.7025 H       1  LIG1        0.1754
     32 H           3.4657   -2.9199    0.4876 H       1  LIG1        0.0638
     33 H          -0.0852    0.8086    0.0456 H       1  LIG1        0.0624
     34 H          -1.8365   -2.8858   -1.3138 H       1  LIG1        0.0624
     35 H          -2.3206    1.7316    0.4135 H       1  LIG1        0.0625
     36 H          -4.0767   -1.9427   -1.0062 H       1  LIG1        0.0625
     37 H           3.7477   -3.6342   -1.8678 H       1  LIG1        0.0633
     38 H           1.9285   -3.0942   -3.4967 H       1  LIG1        0.0830
     39 H           4.9710    1.2483    4.4788 H       1  LIG1        0.0848
     40 H           7.5889    1.3433    1.7178 H       1  LIG1        0.0293
     41 H           7.4481    0.6353    3.3359 H       1  LIG1        0.0293
     42 H           7.1297    2.3730    3.0857 H       1  LIG1        0.0293
     43 H           3.9074    0.2348   -2.2946 H       1  LIG1        0.0660
     44 H           5.1541   -0.3540   -1.1882 H       1  LIG1        0.0660
     45 H           4.8431    1.4162   -1.3701 H       1  LIG1        0.0660
     46 H          -6.6069    2.6698    1.1826 H       1  LIG1        0.1272
@<TRIPOS>BOND
     1     1     2    2
     2     1     3    2
     3     1     6    1
     4     1    12    1
     5     4    24    1
     6     4    29    1
     7     5    25   ar
     8     5    30   ar
     9     6    18    1
    10     7    13   ar
    11     7    23   ar
    12     8    18   ar
    13     8    27   ar
    14     9    24   ar
    15     9    26   ar
    16    10    11   ar
    17    10    25   ar
    18    11    30   ar
    19    12    13   ar
    20    12    15   ar
    21    13    14    1
    22    14    16   ar
    23    14    17   ar
    24    15    22   ar
    25    16    20   ar
    26    17    21   ar
    27    18    24   ar
    28    19    20   ar
    29    19    21   ar
    30    19    25    1
    31    22    23   ar
    32    26    27   ar
    33    26    28    1
    34     6    31    1
    35    15    32    1
    36    16    33    1
    37    17    34    1
    38    20    35    1
    39    21    36    1
    40    22    37    1
    41    23    38    1
    42    27    39    1
    43    28    40    1
    44    28    41    1
    45    28    42    1
    46    29    43    1
    47    29    44    1
    48    29    45    1
    49    30    46    1
@<TRIPOS>MOLECULE
9910224
 46 49 0 0 0
SMALL
GASTEIGER

@<TRIPOS>ATOM
      1 S           1.3269   -1.5653    1.8408 S.O2    1  LIG1        0.0756
      2 O           2.3745   -2.2409    2.5792 O.2     1  LIG1       -0.1499
      3 O          -0.0563   -1.7874    2.2065 O.2     1  LIG1       -0.1499
      4 O           3.3657    0.3529   -0.3250 O.3     1  LIG1       -0.4773
      5 O          -5.7972   -0.1819   -0.5926 O.2     1  LIG1       -0.4229
      6 N           1.5907    0.0990    1.9217 N.pl3   1  LIG1       -0.1951
      7 N           0.7119   -2.1706   -2.1187 N.ar    1  LIG1       -0.2530
      8 N           3.3132    0.7681    3.2919 N.ar    1  LIG1       -0.2325
      9 N           5.1614    0.8349    1.1292 N.ar    1  LIG1       -0.2137
     10 N          -5.0773    1.7109    0.3588 N.ar    1  LIG1       -0.1076
     11 N          -6.4556    1.7744    0.2652 N.ar    1  LIG1       -0.1156
     12 C           1.5160   -1.9882    0.1354 C.ar    1  LIG1        0.1344
     13 C           0.5333   -1.7629   -0.8243 C.ar    1  LIG1        0.0975
     14 C          -0.7911   -1.1518   -0.6194 C.ar    1  LIG1        0.0023
     15 C           2.6808   -2.6826   -0.2374 C.ar    1  LIG1       -0.0315
     16 C          -0.9648    0.1694   -0.1865 C.ar    1  LIG1       -0.0518
     17 C          -1.9458   -1.8926   -0.9304 C.ar    1  LIG1       -0.0518
     18 C           2.9487    0.4957    2.0232 C.ar    1  LIG1        0.2006
     19 C          -3.3963   -0.0413   -0.3169 C.ar    1  LIG1        0.0385
     20 C          -2.2499    0.7101   -0.0191 C.ar    1  LIG1       -0.0488
     21 C          -3.2270   -1.3492   -0.7832 C.ar    1  LIG1       -0.0488
     22 C           2.8570   -3.0937   -1.5514 C.ar    1  LIG1       -0.0417
     23 C           1.8526   -2.8113   -2.4518 C.ar    1  LIG1        0.0284
     24 C           3.8493    0.5442    0.9519 C.ar    1  LIG1        0.2574
     25 C          -4.7198    0.5471   -0.1492 C.ar    1  LIG1        0.2480
     26 C           5.5439    1.0763    2.4080 C.ar    1  LIG1        0.0602
     27 C           4.6286    1.0495    3.4592 C.ar    1  LIG1        0.0510
     28 C           6.9886    1.3757    2.6609 C.3     1  LIG1       -0.0208
     29 C           4.3705    0.4336   -1.3306 C.3     1  LIG1        0.0805
     30 C          -6.8299    0.6523   -0.2990 C.ar    1  LIG1        0.2047
     31 H           1.0342    0.4812    2.6845 H       1  LIG1        0.1754
     32 H           3.4567   -2.9050    0.4928 H       1  LIG1        0.0638
     33 H          -0.1056    0.8030    0.0132 H       1  LIG1        0.0624
     34 H          -1.8468   -2.9101   -1.3053 H       1  LIG1        0.0624
     35 H          -2.3483    1.7361    0.3349 H       1  LIG1        0.0625
     36 H          -4.0852   -1.9649   -1.0417 H       1  LIG1        0.0625
     37 H           3.7505   -3.6242   -1.8594 H       1  LIG1        0.0633
     38 H           1.9301   -3.1073   -3.4947 H       1  LIG1        0.0830
     39 H           4.9348    1.2488    4.4808 H       1  LIG1        0.0848
     40 H           7.5610    1.3460    1.7283 H       1  LIG1        0.0293
     41 H           7.4148    0.6353    3.3444 H       1  LIG1        0.0293
     42 H           7.0989    2.3737    3.0966 H       1  LIG1        0.0293
     43 H           3.8896    0.2509   -2.2967 H       1  LIG1        0.0660
     44 H           5.1360   -0.3374   -1.1899 H       1  LIG1        0.0660
     45 H           4.8187    1.4322   -1.3653 H       1  LIG1        0.0660
     46 H          -7.8259    0.3209   -0.5526 H       1  LIG1        0.1272
@<TRIPOS>BOND
     1     1     2    2
     2     1     3    2
     3     1     6    1
     4     1    12    1
     5     4    24    1
     6     4    29    1
     7     5    25   ar
     8     5    30   ar
     9     6    18    1
    10     7    13   ar
    11     7    23   ar
    12     8    18   ar
    13     8    27   ar
    14     9    24   ar
    15     9    26   ar
    16    10    11   ar
    17    10    25   ar
    18    11    30   ar
    19    12    13   ar
    20    12    15   ar
    21    13    14    1
    22    14    16   ar
    23    14    17   ar
    24    15    22   ar
    25    16    20   ar
    26    17    21   ar
    27    18    24   ar
    28    19    20   ar
    29    19    21   ar
    30    19    25    1
    31    22    23   ar
    32    26    27   ar
    33    26    28    1
    34     6    31    1
    35    15    32    1
    36    16    33    1
    37    17    34    1
    38    20    35    1
    39    21    36    1
    40    22    37    1
    41    23    38    1
    42    27    39    1
    43    28    40    1
    44    28    41    1
    45    28    42    1
    46    29    43    1
    47    29    44    1
    48    29    45    1
    49    30    46    1
@<TRIPOS>MOLECULE
9910224
 46 49 0 0 0
SMALL
GASTEIGER

@<TRIPOS>ATOM
      1 S           1.3505   -1.3222    1.8810 S.O2    1  LIG1        0.0756
      2 O           2.4056   -1.9778    2.6281 O.2     1  LIG1       -0.1499
      3 O          -0.0220   -1.4239    2.3163 O.2     1  LIG1       -0.1499
      4 O           4.1047    0.7262    3.2538 O.3     1  LIG1       -0.4773
      5 O          -5.0485    1.4668    0.7974 O.2     1  LIG1       -0.4229
      6 N           1.8411    0.2916    1.6929 N.pl3   1  LIG1       -0.1951
      7 N           0.6451   -2.1775   -2.0214 N.ar    1  LIG1       -0.2530
      8 N           0.5543    1.5052    3.2345 N.ar    1  LIG1       -0.2325
      9 N           2.8518    1.9281    4.8725 N.ar    1  LIG1       -0.2137
     10 N          -6.0139   -0.0696   -0.5112 N.ar    1  LIG1       -0.1076
     11 N          -7.0101    0.7260    0.0184 N.ar    1  LIG1       -0.1156
     12 C           1.4804   -1.8713    0.2025 C.ar    1  LIG1        0.1344
     13 C           0.4678   -1.7203   -0.7426 C.ar    1  LIG1        0.0975
     14 C          -0.8738   -1.1323   -0.5527 C.ar    1  LIG1        0.0023
     15 C           2.6723   -2.5202   -0.1689 C.ar    1  LIG1       -0.0315
     16 C          -1.0926    0.1502   -0.0301 C.ar    1  LIG1       -0.0518
     17 C          -2.0081   -1.8589   -0.9621 C.ar    1  LIG1       -0.0518
     18 C           1.7677    1.0218    2.9163 C.ar    1  LIG1        0.2006
     19 C          -3.5121   -0.0958   -0.2290 C.ar    1  LIG1        0.0385
     20 C          -2.3910    0.6522    0.1509 C.ar    1  LIG1       -0.0488
     21 C          -3.3030   -1.3504   -0.8098 C.ar    1  LIG1       -0.0488
     22 C           2.8388   -2.9824   -1.4672 C.ar    1  LIG1       -0.0417
     23 C           1.8038   -2.7851   -2.3543 C.ar    1  LIG1        0.0284
     24 C           2.8986    1.2198    3.7212 C.ar    1  LIG1        0.2574
     25 C          -4.8713    0.3897   -0.0361 C.ar    1  LIG1        0.2480
     26 C           1.6281    2.4111    5.2069 C.ar    1  LIG1        0.0602
     27 C           0.5098    2.1971    4.3987 C.ar    1  LIG1        0.0510
     28 C           1.5163    3.2170    6.4633 C.3     1  LIG1       -0.0208
     29 C           5.1732    0.9168    4.1761 C.3     1  LIG1        0.0805
     30 C          -6.4023    1.6016    0.7817 C.ar    1  LIG1        0.2047
     31 H           2.8238    0.2713    1.4101 H       1  LIG1        0.1754
     32 H           3.4736   -2.6777    0.5508 H       1  LIG1        0.0638
     33 H          -0.2604    0.7849    0.2613 H       1  LIG1        0.0624
     34 H          -1.8840   -2.8431   -1.4130 H       1  LIG1        0.0624
     35 H          -2.5072    1.6378    0.5971 H       1  LIG1        0.0625
     36 H          -4.1484   -1.9529   -1.1386 H       1  LIG1        0.0625
     37 H           3.7480   -3.4877   -1.7738 H       1  LIG1        0.0633
     38 H           1.8710   -3.1230   -3.3846 H       1  LIG1        0.0830
     39 H          -0.4668    2.5876    4.6686 H       1  LIG1        0.0848
     40 H           2.4630    3.2129    7.0134 H       1  LIG1        0.0293
     41 H           0.7427    2.8017    7.1162 H       1  LIG1        0.0293
     42 H           1.2660    4.2551    6.2231 H       1  LIG1        0.0293
     43 H           6.0672    0.4519    3.7493 H       1  LIG1        0.0660
     44 H           4.9676    0.4265    5.1339 H       1  LIG1        0.0660
     45 H           5.3874    1.9821    4.3156 H       1  LIG1        0.0660
     46 H          -6.8311    2.3884    1.3826 H       1  LIG1        0.1272
@<TRIPOS>BOND
     1     1     2    2
     2     1     3    2
     3     1     6    1
     4     1    12    1
     5     4    24    1
     6     4    29    1
     7     5    25   ar
     8     5    30   ar
     9     6    18    1
    10     7    13   ar
    11     7    23   ar
    12     8    18   ar
    13     8    27   ar
    14     9    24   ar
    15     9    26   ar
    16    10    11   ar
    17    10    25   ar
    18    11    30   ar
    19    12    13   ar
    20    12    15   ar
    21    13    14    1
    22    14    16   ar
    23    14    17   ar
    24    15    22   ar
    25    16    20   ar
    26    17    21   ar
    27    18    24   ar
    28    19    20   ar
    29    19    21   ar
    30    19    25    1
    31    22    23   ar
    32    26    27   ar
    33    26    28    1
    34     6    31    1
    35    15    32    1
    36    16    33    1
    37    17    34    1
    38    20    35    1
    39    21    36    1
    40    22    37    1
    41    23    38    1
    42    27    39    1
    43    28    40    1
    44    28    41    1
    45    28    42    1
    46    29    43    1
    47    29    44    1
    48    29    45    1
    49    30    46    1
@<TRIPOS>MOLECULE
9910224
 46 49 0 0 0
SMALL
GASTEIGER

@<TRIPOS>ATOM
      1 S           1.2917   -1.5378    1.8669 S.O2    1  LIG1        0.0756
      2 O           2.3114   -2.2213    2.6386 O.2     1  LIG1       -0.1499
      3 O          -0.1015   -1.7491    2.1967 O.2     1  LIG1       -0.1499
      4 O           2.6721    0.8756    4.4303 O.3     1  LIG1       -0.4773
      5 O          -4.8600    1.7716    0.3887 O.2     1  LIG1       -0.4229
      6 N           1.5602    0.1221    1.9771 N.pl3   1  LIG1       -0.1951
      7 N           0.7528   -2.1099   -2.1045 N.ar    1  LIG1       -0.2530
      8 N           3.6435    0.3948    0.9563 N.ar    1  LIG1       -0.2325
      9 N           4.8226    1.0984    3.4533 N.ar    1  LIG1       -0.2137
     10 N          -5.8992   -0.0356   -0.4225 N.ar    1  LIG1       -0.1076
     11 N          -6.8627    0.8865   -0.0693 N.ar    1  LIG1       -0.1156
     12 C           1.5359   -1.9083    0.1577 C.ar    1  LIG1        0.1344
     13 C           0.5532   -1.7164   -0.8097 C.ar    1  LIG1        0.0975
     14 C          -0.7783   -1.1221   -0.6120 C.ar    1  LIG1        0.0023
     15 C           2.7397   -2.5284   -0.2132 C.ar    1  LIG1       -0.0315
     16 C          -1.9288   -1.8820   -0.8827 C.ar    1  LIG1       -0.0518
     17 C          -0.9556    0.2120   -0.2179 C.ar    1  LIG1       -0.0518
     18 C           2.9277    0.4813    2.0945 C.ar    1  LIG1        0.2006
     19 C          -3.3835   -0.0203   -0.3022 C.ar    1  LIG1        0.0385
     20 C          -3.2102   -1.3417   -0.7307 C.ar    1  LIG1       -0.0488
     21 C          -2.2397    0.7516   -0.0511 C.ar    1  LIG1       -0.0488
     22 C           2.9428   -2.9195   -1.5305 C.ar    1  LIG1       -0.0417
     23 C           1.9260   -2.6910   -2.4338 C.ar    1  LIG1        0.0284
     24 C           3.5048    0.8110    3.3274 C.ar    1  LIG1        0.2574
     25 C          -4.7306    0.5117   -0.1429 C.ar    1  LIG1        0.2480
     26 C           5.5508    1.0172    2.3114 C.ar    1  LIG1        0.0602
     27 C           4.9628    0.6741    1.0940 C.ar    1  LIG1        0.0510
     28 C           7.0169    1.3084    2.3933 C.3     1  LIG1       -0.0208
     29 C           3.3860    1.0650    5.6484 C.3     1  LIG1        0.0805
     30 C          -6.2125    1.9231    0.4023 C.ar    1  LIG1        0.2047
     31 H           0.9675    0.5007    2.7161 H       1  LIG1        0.1754
     32 H           3.5214   -2.7091    0.5217 H       1  LIG1        0.0638
     33 H          -1.8276   -2.9105   -1.2267 H       1  LIG1        0.0624
     34 H          -0.0928    0.8531   -0.0501 H       1  LIG1        0.0624
     35 H          -4.0746   -1.9661   -0.9526 H       1  LIG1        0.0625
     36 H          -2.3324    1.7878    0.2671 H       1  LIG1        0.0625
     37 H           3.8654   -3.3977   -1.8390 H       1  LIG1        0.0633
     38 H           2.0226   -2.9806   -3.4763 H       1  LIG1        0.0830
     39 H           5.5483    0.6104    0.1816 H       1  LIG1        0.0848
     40 H           7.3123    1.5333    3.4232 H       1  LIG1        0.0293
     41 H           7.2667    2.1726    1.7702 H       1  LIG1        0.0293
     42 H           7.5948    0.4425    2.0557 H       1  LIG1        0.0293
     43 H           2.6584    1.0532    6.4656 H       1  LIG1        0.0660
     44 H           3.8891    2.0380    5.6655 H       1  LIG1        0.0660
     45 H           4.0974    0.2504    5.8238 H       1  LIG1        0.0660
     46 H          -6.6063    2.8507    0.7876 H       1  LIG1        0.1272
@<TRIPOS>BOND
     1     1     2    2
     2     1     3    2
     3     1     6    1
     4     1    12    1
     5     4    24    1
     6     4    29    1
     7     5    25   ar
     8     5    30   ar
     9     6    18    1
    10     7    13   ar
    11     7    23   ar
    12     8    18   ar
    13     8    27   ar
    14     9    24   ar
    15     9    26   ar
    16    10    11   ar
    17    10    25   ar
    18    11    30   ar
    19    12    13   ar
    20    12    15   ar
    21    13    14    1
    22    14    16   ar
    23    14    17   ar
    24    15    22   ar
    25    16    20   ar
    26    17    21   ar
    27    18    24   ar
    28    19    20   ar
    29    19    21   ar
    30    19    25    1
    31    22    23   ar
    32    26    27   ar
    33    26    28    1
    34     6    31    1
    35    15    32    1
    36    16    33    1
    37    17    34    1
    38    20    35    1
    39    21    36    1
    40    22    37    1
    41    23    38    1
    42    27    39    1
    43    28    40    1
    44    28    41    1
    45    28    42    1
    46    29    43    1
    47    29    44    1
    48    29    45    1
    49    30    46    1
@<TRIPOS>MOLECULE
9910224
 46 49 0 0 0
SMALL
GASTEIGER

@<TRIPOS>ATOM
      1 S           1.3749   -1.3804    1.8297 S.O2    1  LIG1        0.0756
      2 O           2.4278   -2.0752    2.5458 O.2     1  LIG1       -0.1499
      3 O           0.0032   -1.5358    2.2603 O.2     1  LIG1       -0.1499
      4 O           4.5528   -0.0712    2.3560 O.3     1  LIG1       -0.4773
      5 O          -5.0017    1.6098    0.5683 O.2     1  LIG1       -0.4229
      6 N           1.7107    0.2711    1.8738 N.pl3   1  LIG1       -0.1951
      7 N           0.6148   -2.1545   -2.0820 N.ar    1  LIG1       -0.2530
      8 N           2.2278    1.2974   -0.0938 N.ar    1  LIG1       -0.2325
      9 N           5.0045    0.8062    0.2117 N.ar    1  LIG1       -0.2137
     10 N          -6.0187   -0.1859   -0.2954 N.ar    1  LIG1       -0.1076
     11 N          -6.9940    0.7073    0.1010 N.ar    1  LIG1       -0.1156
     12 C           1.5041   -1.8558    0.1273 C.ar    1  LIG1        0.1344
     13 C           0.4663   -1.7231   -0.7924 C.ar    1  LIG1        0.0975
     14 C          -0.8737   -1.1639   -0.5533 C.ar    1  LIG1        0.0023
     15 C           2.7004   -2.4724   -0.2844 C.ar    1  LIG1       -0.0315
     16 C          -1.0869    0.1882   -0.2513 C.ar    1  LIG1       -0.0518
     17 C          -2.0074   -1.9786   -0.7138 C.ar    1  LIG1       -0.0518
     18 C           2.7391    0.7259    1.0164 C.ar    1  LIG1        0.2006
     19 C          -3.5030   -0.1308   -0.1935 C.ar    1  LIG1        0.0385
     20 C          -2.3795    0.6939   -0.0525 C.ar    1  LIG1       -0.0488
     21 C          -3.3008   -1.4713   -0.5417 C.ar    1  LIG1       -0.0488
     22 C           2.8438   -2.9090   -1.5932 C.ar    1  LIG1       -0.0417
     23 C           1.7800   -2.7285   -2.4508 C.ar    1  LIG1        0.0284
     24 C           4.1085    0.4906    1.1811 C.ar    1  LIG1        0.2574
     25 C          -4.8576    0.3718   -0.0095 C.ar    1  LIG1        0.2480
     26 C           4.4950    1.3651   -0.9147 C.ar    1  LIG1        0.0602
     27 C           3.1321    1.6088   -1.0516 C.ar    1  LIG1        0.0510
     28 C           5.4389    1.6898   -2.0299 C.3     1  LIG1       -0.0208
     29 C           5.9692   -0.1715    2.4394 C.3     1  LIG1        0.0805
     30 C          -6.3563    1.7355    0.6058 C.ar    1  LIG1        0.2047
     31 H           0.8578    0.8185    1.7983 H       1  LIG1        0.1754
     32 H           3.5216   -2.6203    0.4152 H       1  LIG1        0.0638
     33 H          -0.2524    0.8793   -0.1979 H       1  LIG1        0.0624
     34 H          -1.8854   -3.0238   -0.9955 H       1  LIG1        0.0624
     35 H          -2.4961    1.7478    0.1922 H       1  LIG1        0.0625
     36 H          -4.1513   -2.1364   -0.6843 H       1  LIG1        0.0625
     37 H           3.7573   -3.3877   -1.9284 H       1  LIG1        0.0633
     38 H           1.8285   -3.0555   -3.4857 H       1  LIG1        0.0830
     39 H           2.7221    2.0521   -1.9542 H       1  LIG1        0.0848
     40 H           6.4749    1.5021   -1.7308 H       1  LIG1        0.0293
     41 H           5.3500    2.7440   -2.3098 H       1  LIG1        0.0293
     42 H           5.2165    1.0671   -2.9024 H       1  LIG1        0.0293
     43 H           6.2177   -0.5988    3.4156 H       1  LIG1        0.0660
     44 H           6.4415    0.8155    2.3794 H       1  LIG1        0.0660
     45 H           6.3655   -0.8435    1.6705 H       1  LIG1        0.0660
     46 H          -6.7608    2.6392    1.0348 H       1  LIG1        0.1272
@<TRIPOS>BOND
     1     1     2    2
     2     1     3    2
     3     1     6    1
     4     1    12    1
     5     4    24    1
     6     4    29    1
     7     5    25   ar
     8     5    30   ar
     9     6    18    1
    10     7    13   ar
    11     7    23   ar
    12     8    18   ar
    13     8    27   ar
    14     9    24   ar
    15     9    26   ar
    16    10    11   ar
    17    10    25   ar
    18    11    30   ar
    19    12    13   ar
    20    12    15   ar
    21    13    14    1
    22    14    16   ar
    23    14    17   ar
    24    15    22   ar
    25    16    20   ar
    26    17    21   ar
    27    18    24   ar
    28    19    20   ar
    29    19    21   ar
    30    19    25    1
    31    22    23   ar
    32    26    27   ar
    33    26    28    1
    34     6    31    1
    35    15    32    1
    36    16    33    1
    37    17    34    1
    38    20    35    1
    39    21    36    1
    40    22    37    1
    41    23    38    1
    42    27    39    1
    43    28    40    1
    44    28    41    1
    45    28    42    1
    46    29    43    1
    47    29    44    1
    48    29    45    1
    49    30    46    1
@<TRIPOS>MOLECULE
9910224
 46 49 0 0 0
SMALL
GASTEIGER

@<TRIPOS>ATOM
      1 S           1.3655   -1.3877    1.8356 S.O2    1  LIG1        0.0756
      2 O           2.4143   -2.0793    2.5565 O.2     1  LIG1       -0.1499
      3 O          -0.0065   -1.5520    2.2596 O.2     1  LIG1       -0.1499
      4 O           4.5380   -0.0719    2.3639 O.3     1  LIG1       -0.4773
      5 O          -5.9062   -0.3329   -0.5273 O.2     1  LIG1       -0.4229
      6 N           1.6944    0.2656    1.8834 N.pl3   1  LIG1       -0.1951
      7 N           0.6257   -2.1760   -2.0770 N.ar    1  LIG1       -0.2530
      8 N           2.2101    1.2949   -0.0834 N.ar    1  LIG1       -0.2325
      9 N           4.9870    0.8097    0.2210 N.ar    1  LIG1       -0.2137
     10 N          -5.2122    1.6441    0.2562 N.ar    1  LIG1       -0.1076
     11 N          -6.5890    1.6840    0.1567 N.ar    1  LIG1       -0.1156
     12 C           1.5032   -1.8621    0.1348 C.ar    1  LIG1        0.1344
     13 C           0.4692   -1.7387   -0.7895 C.ar    1  LIG1        0.0975
     14 C          -0.8728   -1.1772   -0.5648 C.ar    1  LIG1        0.0023
     15 C           2.7046   -2.4726   -0.2690 C.ar    1  LIG1       -0.0315
     16 C          -1.0853    0.1756   -0.2673 C.ar    1  LIG1       -0.0518
     17 C          -2.0079   -1.9875   -0.7461 C.ar    1  LIG1       -0.0518
     18 C           2.7218    0.7250    1.0267 C.ar    1  LIG1        0.2006
     19 C          -3.5060   -0.1266   -0.2826 C.ar    1  LIG1        0.0385
     20 C          -2.3809    0.6883   -0.1066 C.ar    1  LIG1       -0.0488
     21 C          -3.3028   -1.4722   -0.6104 C.ar    1  LIG1       -0.0488
     22 C           2.8581   -2.9119   -1.5766 C.ar    1  LIG1       -0.0417
     23 C           1.7972   -2.7420   -2.4391 C.ar    1  LIG1        0.0284
     24 C           4.0918    0.4924    1.1910 C.ar    1  LIG1        0.2574
     25 C          -4.8387    0.4454   -0.1497 C.ar    1  LIG1        0.2480
     26 C           4.4759    1.3689   -0.9048 C.ar    1  LIG1        0.0602
     27 C           3.1126    1.6099   -1.0407 C.ar    1  LIG1        0.0510
     28 C           5.4183    1.6965   -2.0207 C.3     1  LIG1       -0.0208
     29 C           5.9554   -0.1590    2.4507 C.3     1  LIG1        0.0805
     30 C          -6.9492    0.5119   -0.3084 C.ar    1  LIG1        0.2047
     31 H           0.8406    0.8119    1.8095 H       1  LIG1        0.1754
     32 H           3.5241   -2.6136    0.4342 H       1  LIG1        0.0638
     33 H          -0.2523    0.8639   -0.1936 H       1  LIG1        0.0624
     34 H          -1.8827   -3.0333   -1.0211 H       1  LIG1        0.0624
     35 H          -2.5037    1.7437    0.1328 H       1  LIG1        0.0625
     36 H          -4.1482   -2.1388   -0.7743 H       1  LIG1        0.0625
     37 H           3.7775   -3.3837   -1.9062 H       1  LIG1        0.0633
     38 H           1.8532   -3.0705   -3.4728 H       1  LIG1        0.0830
     39 H           2.7008    2.0538   -1.9423 H       1  LIG1        0.0848
     40 H           6.4549    1.5122   -1.7212 H       1  LIG1        0.0293
     41 H           5.3256    2.7492   -2.3013 H       1  LIG1        0.0293
     42 H           5.1980    1.0716   -2.8921 H       1  LIG1        0.0293
     43 H           6.2052   -0.5843    3.4271 H       1  LIG1        0.0660
     44 H           6.4184    0.8325    2.3924 H       1  LIG1        0.0660
     45 H           6.3596   -0.8267    1.6823 H       1  LIG1        0.0660
     46 H          -7.9403    0.1484   -0.5343 H       1  LIG1        0.1272
@<TRIPOS>BOND
     1     1     2    2
     2     1     3    2
     3     1     6    1
     4     1    12    1
     5     4    24    1
     6     4    29    1
     7     5    25   ar
     8     5    30   ar
     9     6    18    1
    10     7    13   ar
    11     7    23   ar
    12     8    18   ar
    13     8    27   ar
    14     9    24   ar
    15     9    26   ar
    16    10    11   ar
    17    10    25   ar
    18    11    30   ar
    19    12    13   ar
    20    12    15   ar
    21    13    14    1
    22    14    16   ar
    23    14    17   ar
    24    15    22   ar
    25    16    20   ar
    26    17    21   ar
    27    18    24   ar
    28    19    20   ar
    29    19    21   ar
    30    19    25    1
    31    22    23   ar
    32    26    27   ar
    33    26    28    1
    34     6    31    1
    35    15    32    1
    36    16    33    1
    37    17    34    1
    38    20    35    1
    39    21    36    1
    40    22    37    1
    41    23    38    1
    42    27    39    1
    43    28    40    1
    44    28    41    1
    45    28    42    1
    46    29    43    1
    47    29    44    1
    48    29    45    1
    49    30    46    1
@<TRIPOS>MOLECULE
9910224
 46 49 0 0 0
SMALL
GASTEIGER

@<TRIPOS>ATOM
      1 S           1.2753   -1.5450    1.8674 S.O2    1  LIG1        0.0756
      2 O           2.2986   -2.2254    2.6385 O.2     1  LIG1       -0.1499
      3 O          -0.1165   -1.7706    2.1915 O.2     1  LIG1       -0.1499
      4 O           2.6471    0.8658    4.4378 O.3     1  LIG1       -0.4773
      5 O          -5.8152   -0.3081   -0.3955 O.2     1  LIG1       -0.4229
      6 N           1.5337    0.1154    1.9827 N.pl3   1  LIG1       -0.1951
      7 N           0.7523   -2.1070   -2.1075 N.ar    1  LIG1       -0.2530
      8 N           3.6143    0.4014    0.9604 N.ar    1  LIG1       -0.2325
      9 N           4.7957    1.0956    3.4585 N.ar    1  LIG1       -0.2137
     10 N          -5.1047    1.6834    0.3341 N.ar    1  LIG1       -0.1076
     11 N          -6.4858    1.6987    0.3270 N.ar    1  LIG1       -0.1156
     12 C           1.5285   -1.9087    0.1573 C.ar    1  LIG1        0.1344
     13 C           0.5459   -1.7199   -0.8129 C.ar    1  LIG1        0.0975
     14 C          -0.7903   -1.1394   -0.6124 C.ar    1  LIG1        0.0023
     15 C           2.7375   -2.5185   -0.2126 C.ar    1  LIG1       -0.0315
     16 C          -1.9325   -1.9143   -0.8772 C.ar    1  LIG1       -0.0518
     17 C          -0.9819    0.1918   -0.2171 C.ar    1  LIG1       -0.0518
     18 C           2.8992    0.4832    2.0996 C.ar    1  LIG1        0.2006
     19 C          -3.4079   -0.0740   -0.2850 C.ar    1  LIG1        0.0385
     20 C          -3.2210   -1.3929   -0.7154 C.ar    1  LIG1       -0.0488
     21 C          -2.2722    0.7124   -0.0425 C.ar    1  LIG1       -0.0488
     22 C           2.9476   -2.9013   -1.5308 C.ar    1  LIG1       -0.0417
     23 C           1.9315   -2.6763   -2.4359 C.ar    1  LIG1        0.0284
     24 C           3.4774    0.8088    3.3331 C.ar    1  LIG1        0.2574
     25 C          -4.7382    0.4903   -0.0942 C.ar    1  LIG1        0.2480
     26 C           5.5225    1.0198    2.3155 C.ar    1  LIG1        0.0602
     27 C           4.9333    0.6818    1.0973 C.ar    1  LIG1        0.0510
     28 C           6.9890    1.3091    2.3968 C.3     1  LIG1       -0.0208
     29 C           3.3608    1.0670    5.6540 C.3     1  LIG1        0.0805
     30 C          -6.8561    0.5191   -0.1065 C.ar    1  LIG1        0.2047
     31 H           0.9363    0.4927    2.7186 H       1  LIG1        0.1754
     32 H           3.5182   -2.6959    0.5244 H       1  LIG1        0.0638
     33 H          -1.8179   -2.9412   -1.2214 H       1  LIG1        0.0624
     34 H          -0.1274    0.8444   -0.0512 H       1  LIG1        0.0624
     35 H          -4.0722   -2.0347   -0.9320 H       1  LIG1        0.0625
     36 H          -2.3842    1.7468    0.2799 H       1  LIG1        0.0625
     37 H           3.8751   -3.3701   -1.8385 H       1  LIG1        0.0633
     38 H           2.0344   -2.9592   -3.4796 H       1  LIG1        0.0830
     39 H           5.5174    0.6224    0.1840 H       1  LIG1        0.0848
     40 H           7.2854    1.5325    3.4268 H       1  LIG1        0.0293
     41 H           7.2399    2.1734    1.7743 H       1  LIG1        0.0293
     42 H           7.5655    0.4425    2.0580 H       1  LIG1        0.0293
     43 H           2.6342    1.0548    6.4721 H       1  LIG1        0.0660
     44 H           3.8574    2.0435    5.6653 H       1  LIG1        0.0660
     45 H           4.0778    0.2581    5.8331 H       1  LIG1        0.0660
     46 H          -7.8541    0.1329   -0.2559 H       1  LIG1        0.1272
@<TRIPOS>BOND
     1     1     2    2
     2     1     3    2
     3     1     6    1
     4     1    12    1
     5     4    24    1
     6     4    29    1
     7     5    25   ar
     8     5    30   ar
     9     6    18    1
    10     7    13   ar
    11     7    23   ar
    12     8    18   ar
    13     8    27   ar
    14     9    24   ar
    15     9    26   ar
    16    10    11   ar
    17    10    25   ar
    18    11    30   ar
    19    12    13   ar
    20    12    15   ar
    21    13    14    1
    22    14    16   ar
    23    14    17   ar
    24    15    22   ar
    25    16    20   ar
    26    17    21   ar
    27    18    24   ar
    28    19    20   ar
    29    19    21   ar
    30    19    25    1
    31    22    23   ar
    32    26    27   ar
    33    26    28    1
    34     6    31    1
    35    15    32    1
    36    16    33    1
    37    17    34    1
    38    20    35    1
    39    21    36    1
    40    22    37    1
    41    23    38    1
    42    27    39    1
    43    28    40    1
    44    28    41    1
    45    28    42    1
    46    29    43    1
    47    29    44    1
    48    29    45    1
    49    30    46    1
@<TRIPOS>MOLECULE
9910224
 46 49 0 0 0
SMALL
GASTEIGER

@<TRIPOS>ATOM
      1 S           1.2885   -1.5732    1.8550 S.O2    1  LIG1        0.0756
      2 O           2.3113   -2.2676    2.6141 O.2     1  LIG1       -0.1499
      3 O          -0.1034   -1.8020    2.1769 O.2     1  LIG1       -0.1499
      4 O           2.7063    0.6123    4.4868 O.3     1  LIG1       -0.4773
      5 O          -5.7966   -0.2112   -0.6178 O.2     1  LIG1       -0.4229
      6 N           1.5490    0.0858    1.9943 N.pl3   1  LIG1       -0.1951
      7 N           0.7588   -2.1046   -2.1222 N.ar    1  LIG1       -0.2530
      8 N           3.6120    0.4567    0.9663 N.ar    1  LIG1       -0.2325
      9 N           4.8363    0.9321    3.4960 N.ar    1  LIG1       -0.2137
     10 N          -5.0953    1.6750    0.3592 N.ar    1  LIG1       -0.1076
     11 N          -6.4717    1.7333    0.2555 N.ar    1  LIG1       -0.1156
     12 C           1.5404   -1.9112    0.1406 C.ar    1  LIG1        0.1344
     13 C           0.5544   -1.7217   -0.8255 C.ar    1  LIG1        0.0975
     14 C          -0.7825   -1.1393   -0.6251 C.ar    1  LIG1        0.0023
     15 C           2.7521   -2.5105   -0.2367 C.ar    1  LIG1       -0.0315
     16 C          -1.9267   -1.8930   -0.9399 C.ar    1  LIG1       -0.0518
     17 C          -0.9731    0.1793   -0.1881 C.ar    1  LIG1       -0.0518
     18 C           2.9154    0.4459    2.1193 C.ar    1  LIG1        0.2006
     19 C          -3.3986   -0.0571   -0.3255 C.ar    1  LIG1        0.0385
     20 C          -3.2138   -1.3631   -0.7938 C.ar    1  LIG1       -0.0488
     21 C          -2.2614    0.7069   -0.0251 C.ar    1  LIG1       -0.0488
     22 C           2.9607   -2.8884   -1.5561 C.ar    1  LIG1       -0.0417
     23 C           1.9397   -2.6675   -2.4569 C.ar    1  LIG1        0.0284
     24 C           3.5171    0.6540    3.3677 C.ar    1  LIG1        0.2574
     25 C          -4.7268    0.5198   -0.1605 C.ar    1  LIG1        0.2480
     26 C           5.5425    0.9636    2.3377 C.ar    1  LIG1        0.0602
     27 C           4.9327    0.7282    1.1052 C.ar    1  LIG1        0.0510
     28 C           7.0093    1.2536    2.4184 C.3     1  LIG1       -0.0208
     29 C           3.4518    0.5099    5.6956 C.3     1  LIG1        0.0805
     30 C          -6.8369    0.6151   -0.3234 C.ar    1  LIG1        0.2047
     31 H           0.9563    0.4458    2.7435 H       1  LIG1        0.1754
     32 H           3.5368   -2.6885    0.4969 H       1  LIG1        0.0638
     33 H          -1.8140   -2.9094   -1.3164 H       1  LIG1        0.0624
     34 H          -0.1178    0.8204    0.0157 H       1  LIG1        0.0624
     35 H          -4.0660   -1.9884   -1.0532 H       1  LIG1        0.0625
     36 H          -2.3718    1.7311    0.3297 H       1  LIG1        0.0625
     37 H           3.8892   -3.3517   -1.8692 H       1  LIG1        0.0633
     38 H           2.0392   -2.9481   -3.5016 H       1  LIG1        0.0830
     39 H           5.5013    0.7495    0.1798 H       1  LIG1        0.0848
     40 H           7.3134    1.4332    3.4545 H       1  LIG1        0.0293
     41 H           7.2525    2.1447    1.8325 H       1  LIG1        0.0293
     42 H           7.5836    0.4038    2.0369 H       1  LIG1        0.0293
     43 H           2.7384    0.3940    6.5176 H       1  LIG1        0.0660
     44 H           4.0312    1.4206    5.8836 H       1  LIG1        0.0660
     45 H           4.0992   -0.3742    5.6897 H       1  LIG1        0.0660
     46 H          -7.8278    0.2809   -0.5883 H       1  LIG1        0.1272
@<TRIPOS>BOND
     1     1     2    2
     2     1     3    2
     3     1     6    1
     4     1    12    1
     5     4    24    1
     6     4    29    1
     7     5    25   ar
     8     5    30   ar
     9     6    18    1
    10     7    13   ar
    11     7    23   ar
    12     8    18   ar
    13     8    27   ar
    14     9    24   ar
    15     9    26   ar
    16    10    11   ar
    17    10    25   ar
    18    11    30   ar
    19    12    13   ar
    20    12    15   ar
    21    13    14    1
    22    14    16   ar
    23    14    17   ar
    24    15    22   ar
    25    16    20   ar
    26    17    21   ar
    27    18    24   ar
    28    19    20   ar
    29    19    21   ar
    30    19    25    1
    31    22    23   ar
    32    26    27   ar
    33    26    28    1
    34     6    31    1
    35    15    32    1
    36    16    33    1
    37    17    34    1
    38    20    35    1
    39    21    36    1
    40    22    37    1
    41    23    38    1
    42    27    39    1
    43    28    40    1
    44    28    41    1
    45    28    42    1
    46    29    43    1
    47    29    44    1
    48    29    45    1
    49    30    46    1
@<TRIPOS>MOLECULE
9910224
 46 49 0 0 0
SMALL
GASTEIGER

@<TRIPOS>ATOM
      1 S           1.2867   -1.5941    1.8673 S.O2    1  LIG1        0.0756
      2 O           2.3075   -2.2864    2.6295 O.2     1  LIG1       -0.1499
      3 O          -0.1053   -1.8184    2.1914 O.2     1  LIG1       -0.1499
      4 O           2.5862    1.1014    4.3808 O.3     1  LIG1       -0.4773
      5 O          -5.7635   -0.0561   -0.7841 O.2     1  LIG1       -0.4229
      6 N           1.5509    0.0619    2.0044 N.pl3   1  LIG1       -0.1951
      7 N           0.7493   -2.1084   -2.1139 N.ar    1  LIG1       -0.2530
      8 N           3.6581    0.2595    1.0074 N.ar    1  LIG1       -0.2325
      9 N           4.7571    1.2605    3.4370 N.ar    1  LIG1       -0.2137
     10 N          -5.0694    1.7172    0.3898 N.ar    1  LIG1       -0.1076
     11 N          -6.4337    1.8328    0.2071 N.ar    1  LIG1       -0.1156
     12 C           1.5282   -1.9408    0.1520 C.ar    1  LIG1        0.1344
     13 C           0.5479   -1.7299   -0.8138 C.ar    1  LIG1        0.0975
     14 C          -0.7826   -1.1288   -0.6171 C.ar    1  LIG1        0.0023
     15 C           2.7288   -2.5642   -0.2260 C.ar    1  LIG1       -0.0315
     16 C          -0.9580    0.1846   -0.1596 C.ar    1  LIG1       -0.0518
     17 C          -1.9348   -1.8567   -0.9636 C.ar    1  LIG1       -0.0518
     18 C           2.9134    0.4399    2.1157 C.ar    1  LIG1        0.2006
     19 C          -3.3843   -0.0056   -0.3445 C.ar    1  LIG1        0.0385
     20 C          -2.2402    0.7308   -0.0063 C.ar    1  LIG1       -0.0488
     21 C          -3.2150   -1.3062   -0.8322 C.ar    1  LIG1       -0.0488
     22 C           2.9335   -2.9365   -1.5481 C.ar    1  LIG1       -0.0417
     23 C           1.9204   -2.6895   -2.4498 C.ar    1  LIG1        0.0284
     24 C           3.4488    0.9305    3.3131 C.ar    1  LIG1        0.2574
     25 C          -4.7039    0.5951   -0.2006 C.ar    1  LIG1        0.2480
     26 C           5.5164    1.0690    2.3293 C.ar    1  LIG1        0.0602
     27 C           4.9668    0.5850    1.1428 C.ar    1  LIG1        0.0510
     28 C           6.9737    1.4016    2.4122 C.3     1  LIG1       -0.0208
     29 C           3.2400    1.5937    5.5468 C.3     1  LIG1        0.0805
     30 C          -6.7945    0.7809   -0.4874 C.ar    1  LIG1        0.2047
     31 H           0.9483    0.4440    2.7335 H       1  LIG1        0.1754
     32 H           3.5087   -2.7592    0.5081 H       1  LIG1        0.0638
     33 H          -0.0970    0.8089    0.0656 H       1  LIG1        0.0624
     34 H          -1.8335   -2.8675   -1.3577 H       1  LIG1        0.0624
     35 H          -2.3389    1.7504    0.3645 H       1  LIG1        0.0625
     36 H          -4.0731   -1.9101   -1.1187 H       1  LIG1        0.0625
     37 H           3.8553   -3.4133   -1.8615 H       1  LIG1        0.0633
     38 H           2.0189   -2.9621   -3.4968 H       1  LIG1        0.0830
     39 H           5.5754    0.4399    0.2554 H       1  LIG1        0.0848
     40 H           7.2494    1.6916    3.4313 H       1  LIG1        0.0293
     41 H           7.2100    2.2346    1.7431 H       1  LIG1        0.0293
     42 H           7.5784    0.5332    2.1324 H       1  LIG1        0.0293
     43 H           2.4877    1.6866    6.3359 H       1  LIG1        0.0660
     44 H           3.6633    2.5894    5.3729 H       1  LIG1        0.0660
     45 H           4.0071    0.8950    5.8981 H       1  LIG1        0.0660
     46 H          -7.7752    0.5085   -0.8449 H       1  LIG1        0.1272
@<TRIPOS>BOND
     1     1     2    2
     2     1     3    2
     3     1     6    1
     4     1    12    1
     5     4    24    1
     6     4    29    1
     7     5    25   ar
     8     5    30   ar
     9     6    18    1
    10     7    13   ar
    11     7    23   ar
    12     8    18   ar
    13     8    27   ar
    14     9    24   ar
    15     9    26   ar
    16    10    11   ar
    17    10    25   ar
    18    11    30   ar
    19    12    13   ar
    20    12    15   ar
    21    13    14    1
    22    14    16   ar
    23    14    17   ar
    24    15    22   ar
    25    16    20   ar
    26    17    21   ar
    27    18    24   ar
    28    19    20   ar
    29    19    21   ar
    30    19    25    1
    31    22    23   ar
    32    26    27   ar
    33    26    28    1
    34     6    31    1
    35    15    32    1
    36    16    33    1
    37    17    34    1
    38    20    35    1
    39    21    36    1
    40    22    37    1
    41    23    38    1
    42    27    39    1
    43    28    40    1
    44    28    41    1
    45    28    42    1
    46    29    43    1
    47    29    44    1
    48    29    45    1
    49    30    46    1
@<TRIPOS>MOLECULE
9910224
 46 49 0 0 0
SMALL
GASTEIGER

@<TRIPOS>ATOM
      1 S           1.2903   -1.5778    1.8538 S.O2    1  LIG1        0.0756
      2 O           2.3128   -2.2694    2.6165 O.2     1  LIG1       -0.1499
      3 O          -0.1006   -1.7986    2.1818 O.2     1  LIG1       -0.1499
      4 O           2.5891    1.1104    4.3711 O.3     1  LIG1       -0.4773
      5 O          -4.9320    1.4735    0.7735 O.2     1  LIG1       -0.4229
      6 N           1.5549    0.0791    1.9916 N.pl3   1  LIG1       -0.1951
      7 N           0.7613   -2.0758   -2.1318 N.ar    1  LIG1       -0.2530
      8 N           3.6635    0.2776    0.9964 N.ar    1  LIG1       -0.2325
      9 N           4.7624    1.2655    3.4315 N.ar    1  LIG1       -0.2137
     10 N          -5.9223   -0.1009   -0.4698 N.ar    1  LIG1       -0.1076
     11 N          -6.9092    0.7013    0.0670 N.ar    1  LIG1       -0.1156
     12 C           1.5334   -1.9221    0.1378 C.ar    1  LIG1        0.1344
     13 C           0.5543   -1.7092   -0.8299 C.ar    1  LIG1        0.0975
     14 C          -0.7871   -1.1360   -0.6247 C.ar    1  LIG1        0.0023
     15 C           2.7360   -2.5412   -0.2402 C.ar    1  LIG1       -0.0315
     16 C          -0.9916    0.1656   -0.1448 C.ar    1  LIG1       -0.0518
     17 C          -1.9235   -1.8895   -0.9672 C.ar    1  LIG1       -0.0518
     18 C           2.9181    0.4550    2.1044 C.ar    1  LIG1        0.2006
     19 C          -3.4138   -0.1060   -0.2542 C.ar    1  LIG1        0.0385
     20 C          -2.2865    0.6673    0.0566 C.ar    1  LIG1       -0.0488
     21 C          -3.2153   -1.3832   -0.7897 C.ar    1  LIG1       -0.0488
     22 C           2.9443   -2.9068   -1.5635 C.ar    1  LIG1       -0.0417
     23 C           1.9344   -2.6539   -2.4672 C.ar    1  LIG1        0.0284
     24 C           3.4536    0.9394    3.3043 C.ar    1  LIG1        0.2574
     25 C          -4.7706    0.3776   -0.0386 C.ar    1  LIG1        0.2480
     26 C           5.5232    1.0747    2.3245 C.ar    1  LIG1        0.0602
     27 C           4.9732    0.5972    1.1352 C.ar    1  LIG1        0.0510
     28 C           6.9818    1.4002    2.4111 C.3     1  LIG1       -0.0208
     29 C           3.2450    1.5866    5.5428 C.3     1  LIG1        0.0805
     30 C          -6.2872    1.5992    0.7920 C.ar    1  LIG1        0.2047
     31 H           0.9553    0.4562    2.7259 H       1  LIG1        0.1754
     32 H           3.5140   -2.7391    0.4942 H       1  LIG1        0.0638
     33 H          -0.1431    0.8098    0.0725 H       1  LIG1        0.0624
     34 H          -1.8026   -2.8889   -1.3835 H       1  LIG1        0.0624
     35 H          -2.4013    1.6743    0.4518 H       1  LIG1        0.0625
     36 H          -4.0670   -2.0038   -1.0644 H       1  LIG1        0.0625
     37 H           3.8666   -3.3828   -1.8764 H       1  LIG1        0.0633
     38 H           2.0356   -2.9216   -3.5151 H       1  LIG1        0.0830
     39 H           5.5827    0.4526    0.2483 H       1  LIG1        0.0848
     40 H           7.2565    1.6870    3.4313 H       1  LIG1        0.0293
     41 H           7.2236    2.2330    1.7439 H       1  LIG1        0.0293
     42 H           7.5827    0.5291    2.1313 H       1  LIG1        0.0293
     43 H           2.4922    1.6783    6.3317 H       1  LIG1        0.0660
     44 H           3.6765    2.5804    5.3791 H       1  LIG1        0.0660
     45 H           4.0060    0.8785    5.8888 H       1  LIG1        0.0660
     46 H          -6.7052    2.3977    1.3851 H       1  LIG1        0.1272
@<TRIPOS>BOND
     1     1     2    2
     2     1     3    2
     3     1     6    1
     4     1    12    1
     5     4    24    1
     6     4    29    1
     7     5    25   ar
     8     5    30   ar
     9     6    18    1
    10     7    13   ar
    11     7    23   ar
    12     8    18   ar
    13     8    27   ar
    14     9    24   ar
    15     9    26   ar
    16    10    11   ar
    17    10    25   ar
    18    11    30   ar
    19    12    13   ar
    20    12    15   ar
    21    13    14    1
    22    14    16   ar
    23    14    17   ar
    24    15    22   ar
    25    16    20   ar
    26    17    21   ar
    27    18    24   ar
    28    19    20   ar
    29    19    21   ar
    30    19    25    1
    31    22    23   ar
    32    26    27   ar
    33    26    28    1
    34     6    31    1
    35    15    32    1
    36    16    33    1
    37    17    34    1
    38    20    35    1
    39    21    36    1
    40    22    37    1
    41    23    38    1
    42    27    39    1
    43    28    40    1
    44    28    41    1
    45    28    42    1
    46    29    43    1
    47    29    44    1
    48    29    45    1
    49    30    46    1
@<TRIPOS>MOLECULE
9910224
 46 49 0 0 0
SMALL
GASTEIGER

@<TRIPOS>ATOM
      1 S           1.3489   -1.5113    1.8058 S.O2    1  LIG1        0.0756
      2 O           2.4387   -2.1213    2.5409 O.2     1  LIG1       -0.1499
      3 O          -0.0106   -1.7605    2.2378 O.2     1  LIG1       -0.1499
      4 O           3.6482    0.7262    3.7119 O.3     1  LIG1       -0.4773
      5 O          -5.7922   -0.0401   -0.7529 O.2     1  LIG1       -0.4229
      6 N           1.5922    0.1601    1.8604 N.pl3   1  LIG1       -0.1951
      7 N           0.6485   -2.2410   -2.1158 N.ar    1  LIG1       -0.2530
      8 N           3.0722    0.6142    0.1218 N.ar    1  LIG1       -0.2325
      9 N           5.1969    1.0853    1.9511 N.ar    1  LIG1       -0.2137
     10 N          -5.0634    1.7597    0.3570 N.ar    1  LIG1       -0.1076
     11 N          -6.4281    1.8877    0.1841 N.ar    1  LIG1       -0.1156
     12 C           1.5056   -1.9746    0.1099 C.ar    1  LIG1        0.1344
     13 C           0.4960   -1.7937   -0.8302 C.ar    1  LIG1        0.0975
     14 C          -0.8227   -1.1698   -0.6195 C.ar    1  LIG1        0.0023
     15 C           2.6829   -2.6403   -0.2759 C.ar    1  LIG1       -0.0315
     16 C          -1.9895   -1.8915   -0.9282 C.ar    1  LIG1       -0.0518
     17 C          -0.9768    0.1569   -0.1948 C.ar    1  LIG1       -0.0518
     18 C           2.8972    0.5596    1.4566 C.ar    1  LIG1        0.2006
     19 C          -3.4083   -0.0065   -0.3414 C.ar    1  LIG1        0.0385
     20 C          -3.2611   -1.3220   -0.7953 C.ar    1  LIG1       -0.0488
     21 C          -2.2505    0.7231   -0.0373 C.ar    1  LIG1       -0.0488
     22 C           2.8365   -3.0814   -1.5832 C.ar    1  LIG1       -0.0417
     23 C           1.7982   -2.8582   -2.4618 C.ar    1  LIG1        0.0284
     24 C           3.9407    0.7836    2.3626 C.ar    1  LIG1        0.2574
     25 C          -4.7181    0.6154   -0.2011 C.ar    1  LIG1        0.2480
     26 C           5.3790    1.1412    0.6073 C.ar    1  LIG1        0.0602
     27 C           4.3291    0.9160   -0.2803 C.ar    1  LIG1        0.0510
     28 C           6.7497    1.4580    0.0960 C.3     1  LIG1       -0.0208
     29 C           4.7950    0.9188    4.5349 C.3     1  LIG1        0.0805
     30 C          -6.8090    0.8192   -0.4732 C.ar    1  LIG1        0.2047
     31 H           1.3893    0.4643    2.8136 H       1  LIG1        0.1754
     32 H           3.4838   -2.8174    0.4387 H       1  LIG1        0.0638
     33 H          -1.9069   -2.9133   -1.2976 H       1  LIG1        0.0624
     34 H          -0.1068    0.7797   -0.0016 H       1  LIG1        0.0624
     35 H          -4.1301   -1.9219   -1.0558 H       1  LIG1        0.0625
     36 H          -2.3297    1.7529    0.3080 H       1  LIG1        0.0625
     37 H           3.7376   -3.5924   -1.9024 H       1  LIG1        0.0633
     38 H           1.8558   -3.1826   -3.4970 H       1  LIG1        0.0830
     39 H           4.4728    0.9657   -1.3553 H       1  LIG1        0.0848
     40 H           7.4639    1.5406    0.9212 H       1  LIG1        0.0293
     41 H           6.7403    2.4084   -0.4465 H       1  LIG1        0.0293
     42 H           7.0966    0.6654   -0.5745 H       1  LIG1        0.0293
     43 H           4.4767    0.8275    5.5779 H       1  LIG1        0.0660
     44 H           5.2121    1.9233    4.4020 H       1  LIG1        0.0660
     45 H           5.5533    0.1503    4.3494 H       1  LIG1        0.0660
     46 H          -7.7972    0.5475   -0.8110 H       1  LIG1        0.1272
@<TRIPOS>BOND
     1     1     2    2
     2     1     3    2
     3     1     6    1
     4     1    12    1
     5     4    24    1
     6     4    29    1
     7     5    25   ar
     8     5    30   ar
     9     6    18    1
    10     7    13   ar
    11     7    23   ar
    12     8    18   ar
    13     8    27   ar
    14     9    24   ar
    15     9    26   ar
    16    10    11   ar
    17    10    25   ar
    18    11    30   ar
    19    12    13   ar
    20    12    15   ar
    21    13    14    1
    22    14    16   ar
    23    14    17   ar
    24    15    22   ar
    25    16    20   ar
    26    17    21   ar
    27    18    24   ar
    28    19    20   ar
    29    19    21   ar
    30    19    25    1
    31    22    23   ar
    32    26    27   ar
    33    26    28    1
    34     6    31    1
    35    15    32    1
    36    16    33    1
    37    17    34    1
    38    20    35    1
    39    21    36    1
    40    22    37    1
    41    23    38    1
    42    27    39    1
    43    28    40    1
    44    28    41    1
    45    28    42    1
    46    29    43    1
    47    29    44    1
    48    29    45    1
    49    30    46    1
@<TRIPOS>MOLECULE
9910224
 46 49 0 0 0
SMALL
GASTEIGER

@<TRIPOS>ATOM
      1 S           1.3027   -1.5218    1.8609 S.O2    1  LIG1        0.0756
      2 O           2.3191   -2.2078    2.6346 O.2     1  LIG1       -0.1499
      3 O          -0.0909   -1.7202    2.1994 O.2     1  LIG1       -0.1499
      4 O           2.6146    1.1236    4.3521 O.3     1  LIG1       -0.4773
      5 O          -5.8287   -0.3371   -0.4251 O.2     1  LIG1       -0.4229
      6 N           1.5858    0.1351    1.9544 N.pl3   1  LIG1       -0.1951
      7 N           0.7397   -2.1647   -2.1001 N.ar    1  LIG1       -0.2530
      8 N           3.7054    0.3135    0.9762 N.ar    1  LIG1       -0.2325
      9 N           4.7974    1.2623    3.4311 N.ar    1  LIG1       -0.2137
     10 N          -5.1275    1.6217    0.3975 N.ar    1  LIG1       -0.1076
     11 N          -6.5092    1.6270    0.3982 N.ar    1  LIG1       -0.1156
     12 C           1.5330   -1.9118    0.1529 C.ar    1  LIG1        0.1344
     13 C           0.5433   -1.7405   -0.8131 C.ar    1  LIG1        0.0975
     14 C          -0.7964   -1.1538   -0.6255 C.ar    1  LIG1        0.0023
     15 C           2.7350   -2.5406   -0.2120 C.ar    1  LIG1       -0.0315
     16 C          -0.9976    0.1505   -0.1531 C.ar    1  LIG1       -0.0518
     17 C          -1.9365   -1.8958   -0.9843 C.ar    1  LIG1       -0.0518
     18 C           2.9521    0.4946    2.0794 C.ar    1  LIG1        0.2006
     19 C          -3.4225   -0.0970   -0.3012 C.ar    1  LIG1        0.0385
     20 C          -2.2907    0.6640    0.0249 C.ar    1  LIG1       -0.0488
     21 C          -3.2277   -1.3788   -0.8270 C.ar    1  LIG1       -0.0488
     22 C           2.9318   -2.9625   -1.5199 C.ar    1  LIG1       -0.0417
     23 C           1.9110   -2.7538   -2.4223 C.ar    1  LIG1        0.0284
     24 C           3.4848    0.9580    3.2895 C.ar    1  LIG1        0.2574
     25 C          -4.7554    0.4533   -0.0905 C.ar    1  LIG1        0.2480
     26 C           5.5653    1.0711    2.3267 C.ar    1  LIG1        0.0602
     27 C           5.0170    0.6147    1.1299 C.ar    1  LIG1        0.0510
     28 C           7.0268    1.3757    2.4320 C.3     1  LIG1       -0.0208
     29 C           3.2546    1.6344    5.5176 C.3     1  LIG1        0.0805
     30 C          -6.8740    0.4659   -0.0886 C.ar    1  LIG1        0.2047
     31 H           0.9816    0.5389    2.6707 H       1  LIG1        0.1754
     32 H           3.5202   -2.7060    0.5230 H       1  LIG1        0.0638
     33 H          -0.1494    0.7898    0.0778 H       1  LIG1        0.0624
     34 H          -1.8181   -2.8959   -1.4002 H       1  LIG1        0.0624
     35 H          -2.4079    1.6720    0.4210 H       1  LIG1        0.0625
     36 H          -4.0741   -1.9962   -1.1193 H       1  LIG1        0.0625
     37 H           3.8524   -3.4489   -1.8211 H       1  LIG1        0.0633
     38 H           2.0016   -3.0681   -3.4581 H       1  LIG1        0.0830
     39 H           5.6324    0.4726    0.2460 H       1  LIG1        0.0848
     40 H           7.3028    1.6153    3.4642 H       1  LIG1        0.0293
     41 H           7.2799    2.2332    1.8012 H       1  LIG1        0.0293
     42 H           7.6193    0.5106    2.1172 H       1  LIG1        0.0293
     43 H           2.4985    1.7130    6.3047 H       1  LIG1        0.0660
     44 H           3.6541    2.6389    5.3387 H       1  LIG1        0.0660
     45 H           4.0375    0.9565    5.8749 H       1  LIG1        0.0660
     46 H          -7.8695    0.0807   -0.2496 H       1  LIG1        0.1272
@<TRIPOS>BOND
     1     1     2    2
     2     1     3    2
     3     1     6    1
     4     1    12    1
     5     4    24    1
     6     4    29    1
     7     5    25   ar
     8     5    30   ar
     9     6    18    1
    10     7    13   ar
    11     7    23   ar
    12     8    18   ar
    13     8    27   ar
    14     9    24   ar
    15     9    26   ar
    16    10    11   ar
    17    10    25   ar
    18    11    30   ar
    19    12    13   ar
    20    12    15   ar
    21    13    14    1
    22    14    16   ar
    23    14    17   ar
    24    15    22   ar
    25    16    20   ar
    26    17    21   ar
    27    18    24   ar
    28    19    20   ar
    29    19    21   ar
    30    19    25    1
    31    22    23   ar
    32    26    27   ar
    33    26    28    1
    34     6    31    1
    35    15    32    1
    36    16    33    1
    37    17    34    1
    38    20    35    1
    39    21    36    1
    40    22    37    1
    41    23    38    1
    42    27    39    1
    43    28    40    1
    44    28    41    1
    45    28    42    1
    46    29    43    1
    47    29    44    1
    48    29    45    1
    49    30    46    1
@<TRIPOS>MOLECULE
9910224
 46 49 0 0 0
SMALL
GASTEIGER

@<TRIPOS>ATOM
      1 S           1.2651   -1.3558    1.9231 S.O2    1  LIG1        0.0756
      2 O           2.2790   -2.0476    2.6932 O.2     1  LIG1       -0.1499
      3 O          -0.1216   -1.4238    2.3245 O.2     1  LIG1       -0.1499
      4 O           3.9629    0.3506    3.5173 O.3     1  LIG1       -0.4773
      5 O          -5.0979    1.2779    0.9499 O.2     1  LIG1       -0.4229
      6 N           1.7982    0.2477    1.7630 N.pl3   1  LIG1       -0.1951
      7 N           0.6783   -2.1523   -2.0141 N.ar    1  LIG1       -0.2530
      8 N           0.5699    1.6190    3.2142 N.ar    1  LIG1       -0.2325
      9 N           2.7675    1.7152    5.0355 N.ar    1  LIG1       -0.2137
     10 N          -5.9972    0.1129   -0.7353 N.ar    1  LIG1       -0.1076
     11 N          -7.0149    0.7910   -0.0937 N.ar    1  LIG1       -0.1156
     12 C           1.4351   -1.8872    0.2420 C.ar    1  LIG1        0.1344
     13 C           0.4586   -1.7082   -0.7365 C.ar    1  LIG1        0.0975
     14 C          -0.8828   -1.1002   -0.5902 C.ar    1  LIG1        0.0023
     15 C           2.6345   -2.5422   -0.0975 C.ar    1  LIG1       -0.0315
     16 C          -1.1150    0.1382    0.0241 C.ar    1  LIG1       -0.0518
     17 C          -2.0037   -1.7624   -1.1285 C.ar    1  LIG1       -0.0518
     18 C           1.7262    0.9696    2.9899 C.ar    1  LIG1        0.2006
     19 C          -3.5226   -0.0565   -0.3017 C.ar    1  LIG1        0.0385
     20 C          -2.4144    0.6381    0.1947 C.ar    1  LIG1       -0.0488
     21 C          -3.2989   -1.2475   -0.9978 C.ar    1  LIG1       -0.0488
     22 C           2.8429   -2.9879   -1.3958 C.ar    1  LIG1       -0.0417
     23 C           1.8418   -2.7690   -2.3143 C.ar    1  LIG1        0.0284
     24 C           2.7974    0.9934    3.8925 C.ar    1  LIG1        0.2574
     25 C          -4.8819    0.4208   -0.1014 C.ar    1  LIG1        0.2480
     26 C           1.6114    2.3894    5.2628 C.ar    1  LIG1        0.0602
     27 C           0.5383    2.3266    4.3704 C.ar    1  LIG1        0.0510
     28 C           1.5303    3.2393    6.4923 C.3     1  LIG1       -0.0208
     29 C           4.7446   -0.0273    4.6460 C.3     1  LIG1        0.0805
     30 C          -6.4465    1.4450    0.8902 C.ar    1  LIG1        0.2047
     31 H           2.7867    0.2019    1.4980 H       1  LIG1        0.1754
     32 H           3.4103   -2.7148    0.6453 H       1  LIG1        0.0638
     33 H          -0.2953    0.7379    0.4082 H       1  LIG1        0.0624
     34 H          -1.8697   -2.7039   -1.6608 H       1  LIG1        0.0624
     35 H          -2.5417    1.5776    0.7287 H       1  LIG1        0.0625
     36 H          -4.1334   -1.8009   -1.4252 H       1  LIG1        0.0625
     37 H           3.7588   -3.4959   -1.6771 H       1  LIG1        0.0633
     38 H           1.9413   -3.0943   -3.3462 H       1  LIG1        0.0830
     39 H          -0.3863    2.8637    4.5595 H       1  LIG1        0.0848
     40 H           2.4577    3.1747    7.0709 H       1  LIG1        0.0293
     41 H           0.7050    2.9105    7.1304 H       1  LIG1        0.0293
     42 H           1.3773    4.2875    6.2159 H       1  LIG1        0.0293
     43 H           5.5572   -0.6662    4.2868 H       1  LIG1        0.0660
     44 H           4.1553   -0.6097    5.3635 H       1  LIG1        0.0660
     45 H           5.1944    0.8482    5.1256 H       1  LIG1        0.0660
     46 H          -6.9026    2.0754    1.6378 H       1  LIG1        0.1272
@<TRIPOS>BOND
     1     1     2    2
     2     1     3    2
     3     1     6    1
     4     1    12    1
     5     4    24    1
     6     4    29    1
     7     5    25   ar
     8     5    30   ar
     9     6    18    1
    10     7    13   ar
    11     7    23   ar
    12     8    18   ar
    13     8    27   ar
    14     9    24   ar
    15     9    26   ar
    16    10    11   ar
    17    10    25   ar
    18    11    30   ar
    19    12    13   ar
    20    12    15   ar
    21    13    14    1
    22    14    16   ar
    23    14    17   ar
    24    15    22   ar
    25    16    20   ar
    26    17    21   ar
    27    18    24   ar
    28    19    20   ar
    29    19    21   ar
    30    19    25    1
    31    22    23   ar
    32    26    27   ar
    33    26    28    1
    34     6    31    1
    35    15    32    1
    36    16    33    1
    37    17    34    1
    38    20    35    1
    39    21    36    1
    40    22    37    1
    41    23    38    1
    42    27    39    1
    43    28    40    1
    44    28    41    1
    45    28    42    1
    46    29    43    1
    47    29    44    1
    48    29    45    1
    49    30    46    1
@<TRIPOS>MOLECULE
9910224
 46 49 0 0 0
SMALL
GASTEIGER

@<TRIPOS>ATOM
      1 S           1.3634   -1.3451    1.9085 S.O2    1  LIG1        0.0756
      2 O           2.3995   -2.0345    2.6516 O.2     1  LIG1       -0.1499
      3 O          -0.0116   -1.4177    2.3403 O.2     1  LIG1       -0.1499
      4 O           4.0649    0.5202    3.4664 O.3     1  LIG1       -0.4773
      5 O          -5.8407   -0.0199   -0.8394 O.2     1  LIG1       -0.4229
      6 N           1.8940    0.2578    1.7358 N.pl3   1  LIG1       -0.1951
      7 N           0.6410   -2.1859   -1.9940 N.ar    1  LIG1       -0.2530
      8 N           0.5935    1.5606    3.1865 N.ar    1  LIG1       -0.2325
      9 N           2.7862    1.8059    4.9958 N.ar    1  LIG1       -0.2137
     10 N          -5.1962    1.6845    0.4579 N.ar    1  LIG1       -0.1076
     11 N          -6.5522    1.8112    0.2284 N.ar    1  LIG1       -0.1156
     12 C           1.4849   -1.8823    0.2262 C.ar    1  LIG1        0.1344
     13 C           0.4694   -1.7267   -0.7142 C.ar    1  LIG1        0.0975
     14 C          -0.8638   -1.1164   -0.5305 C.ar    1  LIG1        0.0023
     15 C           2.6752   -2.5313   -0.1520 C.ar    1  LIG1       -0.0315
     16 C          -1.0638    0.1676   -0.0048 C.ar    1  LIG1       -0.0518
     17 C          -2.0071   -1.8128   -0.9686 C.ar    1  LIG1       -0.0518
     18 C           1.7890    0.9915    2.9549 C.ar    1  LIG1        0.2006
     19 C          -3.4815    0.0022   -0.3050 C.ar    1  LIG1        0.0385
     20 C          -2.3523    0.7084    0.1276 C.ar    1  LIG1       -0.0488
     21 C          -3.2919   -1.2657   -0.8633 C.ar    1  LIG1       -0.0488
     22 C           2.8372   -2.9903   -1.4518 C.ar    1  LIG1       -0.0417
     23 C           1.7980   -2.7930   -2.3333 C.ar    1  LIG1        0.0284
     24 C           2.8655    1.0970    3.8466 C.ar    1  LIG1        0.2574
     25 C          -4.8053    0.5969   -0.1791 C.ar    1  LIG1        0.2480
     26 C           1.5816    2.3836    5.2383 C.ar    1  LIG1        0.0602
     27 C           0.5136    2.2536    4.3481 C.ar    1  LIG1        0.0510
     28 C           1.4363    3.1958    6.4871 C.3     1  LIG1       -0.0208
     29 C           5.0238    0.5044    4.5193 C.3     1  LIG1        0.0805
     30 C          -6.8834    0.7998   -0.5372 C.ar    1  LIG1        0.2047
     31 H           2.8880    0.2109    1.4995 H       1  LIG1        0.1754
     32 H           3.4800   -2.6895    0.5637 H       1  LIG1        0.0638
     33 H          -0.2256    0.7796    0.3165 H       1  LIG1        0.0624
     34 H          -1.8955   -2.8000   -1.4167 H       1  LIG1        0.0624
     35 H          -2.4607    1.6984    0.5689 H       1  LIG1        0.0625
     36 H          -4.1367   -1.8482   -1.2239 H       1  LIG1        0.0625
     37 H           3.7460   -3.4927   -1.7637 H       1  LIG1        0.0633
     38 H           1.8604   -3.1281   -3.3648 H       1  LIG1        0.0830
     39 H          -0.4488    2.7159    4.5459 H       1  LIG1        0.0848
     40 H           2.3544    3.1602    7.0826 H       1  LIG1        0.0293
     41 H           0.6172    2.8090    7.1006 H       1  LIG1        0.0293
     42 H           1.2353    4.2417    6.2348 H       1  LIG1        0.0293
     43 H           5.9002   -0.0450    4.1617 H       1  LIG1        0.0660
     44 H           4.6401   -0.0189    5.4020 H       1  LIG1        0.0660
     45 H           5.3481    1.5196    4.7720 H       1  LIG1        0.0660
     46 H          -7.8493    0.5476   -0.9467 H       1  LIG1        0.1272
@<TRIPOS>BOND
     1     1     2    2
     2     1     3    2
     3     1     6    1
     4     1    12    1
     5     4    24    1
     6     4    29    1
     7     5    25   ar
     8     5    30   ar
     9     6    18    1
    10     7    13   ar
    11     7    23   ar
    12     8    18   ar
    13     8    27   ar
    14     9    24   ar
    15     9    26   ar
    16    10    11   ar
    17    10    25   ar
    18    11    30   ar
    19    12    13   ar
    20    12    15   ar
    21    13    14    1
    22    14    16   ar
    23    14    17   ar
    24    15    22   ar
    25    16    20   ar
    26    17    21   ar
    27    18    24   ar
    28    19    20   ar
    29    19    21   ar
    30    19    25    1
    31    22    23   ar
    32    26    27   ar
    33    26    28    1
    34     6    31    1
    35    15    32    1
    36    16    33    1
    37    17    34    1
    38    20    35    1
    39    21    36    1
    40    22    37    1
    41    23    38    1
    42    27    39    1
    43    28    40    1
    44    28    41    1
    45    28    42    1
    46    29    43    1
    47    29    44    1
    48    29    45    1
    49    30    46    1
@<TRIPOS>MOLECULE
9910224
 46 49 0 0 0
SMALL
GASTEIGER

@<TRIPOS>ATOM
      1 S           1.2879   -1.5539    1.8530 S.O2    1  LIG1        0.0756
      2 O           2.3080   -2.2356    2.6227 O.2     1  LIG1       -0.1499
      3 O          -0.1058   -1.7697    2.1840 O.2     1  LIG1       -0.1499
      4 O           2.5808    1.1273    4.3535 O.3     1  LIG1       -0.4773
      5 O          -4.8836    1.6500    0.5998 O.2     1  LIG1       -0.4229
      6 N           1.5508    0.1050    1.9674 N.pl3   1  LIG1       -0.1951
      7 N           0.7477   -2.0989   -2.1237 N.ar    1  LIG1       -0.2530
      8 N           3.6624    0.2965    0.9804 N.ar    1  LIG1       -0.2325
      9 N           4.7584    1.2721    3.4225 N.ar    1  LIG1       -0.2137
     10 N          -5.9112   -0.0590   -0.4138 N.ar    1  LIG1       -0.1076
     11 N          -6.8808    0.8123    0.0400 N.ar    1  LIG1       -0.1156
     12 C           1.5274   -1.9201    0.1416 C.ar    1  LIG1        0.1344
     13 C           0.5475   -1.7156   -0.8259 C.ar    1  LIG1        0.0975
     14 C          -0.7864   -1.1270   -0.6227 C.ar    1  LIG1        0.0023
     15 C           2.7273   -2.5467   -0.2320 C.ar    1  LIG1       -0.0315
     16 C          -0.9710    0.1963   -0.1969 C.ar    1  LIG1       -0.0518
     17 C          -1.9334   -1.8851   -0.9133 C.ar    1  LIG1       -0.0518
     18 C           2.9140    0.4778    2.0858 C.ar    1  LIG1        0.2006
     19 C          -3.3972   -0.0526   -0.2690 C.ar    1  LIG1        0.0385
     20 C          -2.2580    0.7213   -0.0059 C.ar    1  LIG1       -0.0488
     21 C          -3.2176   -1.3577   -0.7420 C.ar    1  LIG1       -0.0488
     22 C           2.9309   -2.9282   -1.5516 C.ar    1  LIG1       -0.0417
     23 C           1.9183   -2.6841   -2.4553 C.ar    1  LIG1        0.0284
     24 C           3.4479    0.9549    3.2894 C.ar    1  LIG1        0.2574
     25 C          -4.7468    0.4593   -0.0713 C.ar    1  LIG1        0.2480
     26 C           5.5224    1.0784    2.3180 C.ar    1  LIG1        0.0602
     27 C           4.9742    0.6070    1.1255 C.ar    1  LIG1        0.0510
     28 C           6.9827    1.3940    2.4115 C.3     1  LIG1       -0.0208
     29 C           3.2363    1.5878    5.5315 C.3     1  LIG1        0.0805
     30 C          -6.2371    1.7902    0.6298 C.ar    1  LIG1        0.2047
     31 H           0.9470    0.4923    2.6927 H       1  LIG1        0.1754
     32 H           3.5067   -2.7375    0.5034 H       1  LIG1        0.0638
     33 H          -0.1123    0.8391   -0.0171 H       1  LIG1        0.0624
     34 H          -1.8272   -2.9035   -1.2847 H       1  LIG1        0.0624
     35 H          -2.3568    1.7472    0.3423 H       1  LIG1        0.0625
     36 H          -4.0790   -1.9816   -0.9768 H       1  LIG1        0.0625
     37 H           3.8512   -3.4097   -1.8621 H       1  LIG1        0.0633
     38 H           2.0159   -2.9643   -3.5002 H       1  LIG1        0.0830
     39 H           5.5867    0.4594    0.2412 H       1  LIG1        0.0848
     40 H           7.2552    1.6766    3.4335 H       1  LIG1        0.0293
     41 H           7.2328    2.2268    1.7472 H       1  LIG1        0.0293
     42 H           7.5791    0.5197    2.1320 H       1  LIG1        0.0293
     43 H           2.4816    1.6786    6.3186 H       1  LIG1        0.0660
     44 H           3.6763    2.5794    5.3779 H       1  LIG1        0.0660
     45 H           3.9904    0.8706    5.8740 H       1  LIG1        0.0660
     46 H          -6.6366    2.6630    1.1225 H       1  LIG1        0.1272
@<TRIPOS>BOND
     1     1     2    2
     2     1     3    2
     3     1     6    1
     4     1    12    1
     5     4    24    1
     6     4    29    1
     7     5    25   ar
     8     5    30   ar
     9     6    18    1
    10     7    13   ar
    11     7    23   ar
    12     8    18   ar
    13     8    27   ar
    14     9    24   ar
    15     9    26   ar
    16    10    11   ar
    17    10    25   ar
    18    11    30   ar
    19    12    13   ar
    20    12    15   ar
    21    13    14    1
    22    14    16   ar
    23    14    17   ar
    24    15    22   ar
    25    16    20   ar
    26    17    21   ar
    27    18    24   ar
    28    19    20   ar
    29    19    21   ar
    30    19    25    1
    31    22    23   ar
    32    26    27   ar
    33    26    28    1
    34     6    31    1
    35    15    32    1
    36    16    33    1
    37    17    34    1
    38    20    35    1
    39    21    36    1
    40    22    37    1
    41    23    38    1
    42    27    39    1
    43    28    40    1
    44    28    41    1
    45    28    42    1
    46    29    43    1
    47    29    44    1
    48    29    45    1
    49    30    46    1
@<TRIPOS>MOLECULE
9910224
 46 49 0 0 0
SMALL
GASTEIGER

@<TRIPOS>ATOM
      1 S           1.2869   -1.5741    1.8569 S.O2    1  LIG1        0.0756
      2 O           2.3112   -2.2544    2.6259 O.2     1  LIG1       -0.1499
      3 O          -0.1048   -1.8014    2.1836 O.2     1  LIG1       -0.1499
      4 O           2.5719    1.1106    4.3617 O.3     1  LIG1       -0.4773
      5 O          -5.7968   -0.2210   -0.5839 O.2     1  LIG1       -0.4229
      6 N           1.5423    0.0846    1.9751 N.pl3   1  LIG1       -0.1951
      7 N           0.7522   -2.1209   -2.1193 N.ar    1  LIG1       -0.2530
      8 N           3.6520    0.2879    0.9858 N.ar    1  LIG1       -0.2325
      9 N           4.7463    1.2685    3.4258 N.ar    1  LIG1       -0.2137
     10 N          -5.0854    1.6910    0.3329 N.ar    1  LIG1       -0.1076
     11 N          -6.4624    1.7466    0.2430 N.ar    1  LIG1       -0.1156
     12 C           1.5317   -1.9367    0.1454 C.ar    1  LIG1        0.1344
     13 C           0.5501   -1.7379   -0.8216 C.ar    1  LIG1        0.0975
     14 C          -0.7841   -1.1498   -0.6216 C.ar    1  LIG1        0.0023
     15 C           2.7361   -2.5538   -0.2287 C.ar    1  LIG1       -0.0315
     16 C          -0.9686    0.1771   -0.2083 C.ar    1  LIG1       -0.0518
     17 C          -1.9310   -1.9086   -0.9128 C.ar    1  LIG1       -0.0518
     18 C           2.9036    0.4659    2.0921 C.ar    1  LIG1        0.2006
     19 C          -3.3956   -0.0595   -0.3227 C.ar    1  LIG1        0.0385
     20 C          -2.2557    0.7089   -0.0453 C.ar    1  LIG1       -0.0488
     21 C          -3.2163   -1.3748   -0.7666 C.ar    1  LIG1       -0.0488
     22 C           2.9428   -2.9314   -1.5490 C.ar    1  LIG1       -0.0417
     23 C           1.9279   -2.6950   -2.4521 C.ar    1  LIG1        0.0284
     24 C           3.4370    0.9451    3.2949 C.ar    1  LIG1        0.2574
     25 C          -4.7219    0.5213   -0.1586 C.ar    1  LIG1        0.2480
     26 C           5.5091    1.0803    2.3198 C.ar    1  LIG1        0.0602
     27 C           4.9615    0.6060    1.1282 C.ar    1  LIG1        0.0510
     28 C           6.9680    1.4040    2.4103 C.3     1  LIG1       -0.0208
     29 C           3.2252    1.5868    5.5347 C.3     1  LIG1        0.0805
     30 C          -6.8339    0.6123   -0.3005 C.ar    1  LIG1        0.2047
     31 H           0.9338    0.4714    2.6970 H       1  LIG1        0.1754
     32 H           3.5169   -2.7388    0.5061 H       1  LIG1        0.0638
     33 H          -0.1111    0.8198   -0.0236 H       1  LIG1        0.0624
     34 H          -1.8218   -2.9318   -1.2703 H       1  LIG1        0.0624
     35 H          -2.3620    1.7402    0.2890 H       1  LIG1        0.0625
     36 H          -4.0705   -2.0035   -1.0073 H       1  LIG1        0.0625
     37 H           3.8676   -3.4034   -1.8605 H       1  LIG1        0.0633
     38 H           2.0280   -2.9721   -3.4978 H       1  LIG1        0.0830
     39 H           5.5725    0.4628    0.2424 H       1  LIG1        0.0848
     40 H           7.2402    1.6918    3.4308 H       1  LIG1        0.0293
     41 H           7.2131    2.2354    1.7425 H       1  LIG1        0.0293
     42 H           7.5682    0.5316    2.1335 H       1  LIG1        0.0293
     43 H           2.4713    1.6763    6.3226 H       1  LIG1        0.0660
     44 H           3.6547    2.5816    5.3724 H       1  LIG1        0.0660
     45 H           3.9871    0.8799    5.8808 H       1  LIG1        0.0660
     46 H          -7.8279    0.2710   -0.5440 H       1  LIG1        0.1272
@<TRIPOS>BOND
     1     1     2    2
     2     1     3    2
     3     1     6    1
     4     1    12    1
     5     4    24    1
     6     4    29    1
     7     5    25   ar
     8     5    30   ar
     9     6    18    1
    10     7    13   ar
    11     7    23   ar
    12     8    18   ar
    13     8    27   ar
    14     9    24   ar
    15     9    26   ar
    16    10    11   ar
    17    10    25   ar
    18    11    30   ar
    19    12    13   ar
    20    12    15   ar
    21    13    14    1
    22    14    16   ar
    23    14    17   ar
    24    15    22   ar
    25    16    20   ar
    26    17    21   ar
    27    18    24   ar
    28    19    20   ar
    29    19    21   ar
    30    19    25    1
    31    22    23   ar
    32    26    27   ar
    33    26    28    1
    34     6    31    1
    35    15    32    1
    36    16    33    1
    37    17    34    1
    38    20    35    1
    39    21    36    1
    40    22    37    1
    41    23    38    1
    42    27    39    1
    43    28    40    1
    44    28    41    1
    45    28    42    1
    46    29    43    1
    47    29    44    1
    48    29    45    1
    49    30    46    1
@<TRIPOS>MOLECULE
9910224
 46 49 0 0 0
SMALL
GASTEIGER

@<TRIPOS>ATOM
      1 S           1.3643   -1.3307    1.8934 S.O2    1  LIG1        0.0756
      2 O           2.4028   -2.0136    2.6373 O.2     1  LIG1       -0.1499
      3 O          -0.0110   -1.4065    2.3252 O.2     1  LIG1       -0.1499
      4 O           4.0591    0.5262    3.4529 O.3     1  LIG1       -0.4773
      5 O          -5.0383    1.4862    0.8012 O.2     1  LIG1       -0.4229
      6 N           1.8843    0.2775    1.7222 N.pl3   1  LIG1       -0.1951
      7 N           0.6499   -2.1638   -2.0130 N.ar    1  LIG1       -0.2530
      8 N           0.5881    1.5735    3.1839 N.ar    1  LIG1       -0.2325
      9 N           2.7828    1.7996    4.9936 N.ar    1  LIG1       -0.2137
     10 N          -6.0049   -0.0697   -0.4830 N.ar    1  LIG1       -0.1076
     11 N          -7.0010    0.7309    0.0389 N.ar    1  LIG1       -0.1156
     12 C           1.4897   -1.8660    0.2109 C.ar    1  LIG1        0.1344
     13 C           0.4749   -1.7116   -0.7315 C.ar    1  LIG1        0.0975
     14 C          -0.8652   -1.1252   -0.5360 C.ar    1  LIG1        0.0023
     15 C           2.6812   -2.5120   -0.1669 C.ar    1  LIG1       -0.0315
     16 C          -1.0821    0.1578   -0.0134 C.ar    1  LIG1       -0.0518
     17 C          -2.0000   -1.8529   -0.9411 C.ar    1  LIG1       -0.0518
     18 C           1.7827    1.0042    2.9466 C.ar    1  LIG1        0.2006
     19 C          -3.5024   -0.0876   -0.2099 C.ar    1  LIG1        0.0385
     20 C          -2.3805    0.6607    0.1675 C.ar    1  LIG1       -0.0488
     21 C          -3.2946   -1.3441   -0.7876 C.ar    1  LIG1       -0.0488
     22 C           2.8451   -2.9685   -1.4676 C.ar    1  LIG1       -0.0417
     23 C           1.8082   -2.7684   -2.3510 C.ar    1  LIG1        0.0284
     24 C           2.8604    1.1004    3.8383 C.ar    1  LIG1        0.2574
     25 C          -4.8617    0.3981   -0.0181 C.ar    1  LIG1        0.2480
     26 C           1.5794    2.3760    5.2431 C.ar    1  LIG1        0.0602
     27 C           0.5108    2.2556    4.3524 C.ar    1  LIG1        0.0510
     28 C           1.4359    3.1752    6.5005 C.3     1  LIG1       -0.0208
     29 C           5.0168    0.4964    4.5067 C.3     1  LIG1        0.0805
     30 C          -6.3925    1.6180    0.7882 C.ar    1  LIG1        0.2047
     31 H           2.8775    0.2352    1.4804 H       1  LIG1        0.1754
     32 H           3.4851   -2.6729    0.5503 H       1  LIG1        0.0638
     33 H          -0.2483    0.7911    0.2777 H       1  LIG1        0.0624
     34 H          -1.8768   -2.8377   -1.3909 H       1  LIG1        0.0624
     35 H          -2.4957    1.6474    0.6117 H       1  LIG1        0.0625
     36 H          -4.1404   -1.9471   -1.1138 H       1  LIG1        0.0625
     37 H           3.7544   -3.4713   -1.7796 H       1  LIG1        0.0633
     38 H           1.8726   -3.1016   -3.3833 H       1  LIG1        0.0830
     39 H          -0.4505    2.7173    4.5564 H       1  LIG1        0.0848
     40 H           2.3550    3.1339    7.0941 H       1  LIG1        0.0293
     41 H           0.6179    2.7816    7.1112 H       1  LIG1        0.0293
     42 H           1.2340    4.2235    6.2593 H       1  LIG1        0.0293
     43 H           5.8918   -0.0522    4.1447 H       1  LIG1        0.0660
     44 H           4.6306   -0.0344    5.3839 H       1  LIG1        0.0660
     45 H           5.3440    1.5080    4.7700 H       1  LIG1        0.0660
     46 H          -6.8209    2.4125    1.3793 H       1  LIG1        0.1272
@<TRIPOS>BOND
     1     1     2    2
     2     1     3    2
     3     1     6    1
     4     1    12    1
     5     4    24    1
     6     4    29    1
     7     5    25   ar
     8     5    30   ar
     9     6    18    1
    10     7    13   ar
    11     7    23   ar
    12     8    18   ar
    13     8    27   ar
    14     9    24   ar
    15     9    26   ar
    16    10    11   ar
    17    10    25   ar
    18    11    30   ar
    19    12    13   ar
    20    12    15   ar
    21    13    14    1
    22    14    16   ar
    23    14    17   ar
    24    15    22   ar
    25    16    20   ar
    26    17    21   ar
    27    18    24   ar
    28    19    20   ar
    29    19    21   ar
    30    19    25    1
    31    22    23   ar
    32    26    27   ar
    33    26    28    1
    34     6    31    1
    35    15    32    1
    36    16    33    1
    37    17    34    1
    38    20    35    1
    39    21    36    1
    40    22    37    1
    41    23    38    1
    42    27    39    1
    43    28    40    1
    44    28    41    1
    45    28    42    1
    46    29    43    1
    47    29    44    1
    48    29    45    1
    49    30    46    1
@<TRIPOS>MOLECULE
9910224
 46 49 0 0 0
SMALL
GASTEIGER

@<TRIPOS>ATOM
      1 S           1.3135   -1.3193    1.8922 S.O2    1  LIG1        0.0756
      2 O           2.3449   -1.9990    2.6555 O.2     1  LIG1       -0.1499
      3 O          -0.0662   -1.3951    2.3063 O.2     1  LIG1       -0.1499
      4 O           4.0232    0.5348    3.4237 O.3     1  LIG1       -0.4773
      5 O          -5.9114   -0.2992   -0.3941 O.2     1  LIG1       -0.4229
      6 N           1.8350    0.2862    1.7112 N.pl3   1  LIG1       -0.1951
      7 N           0.6327   -2.1987   -2.0073 N.ar    1  LIG1       -0.2530
      8 N           0.5524    1.5873    3.1803 N.ar    1  LIG1       -0.2325
      9 N           2.7620    1.8152    4.9713 N.ar    1  LIG1       -0.2137
     10 N          -5.2121    1.6869    0.3603 N.ar    1  LIG1       -0.1076
     11 N          -6.5933    1.6996    0.3395 N.ar    1  LIG1       -0.1156
     12 C           1.4622   -1.8722    0.2174 C.ar    1  LIG1        0.1344
     13 C           0.4541   -1.7318   -0.7326 C.ar    1  LIG1        0.0975
     14 C          -0.8815   -1.1365   -0.5471 C.ar    1  LIG1        0.0023
     15 C           2.6591   -2.5154   -0.1457 C.ar    1  LIG1       -0.0315
     16 C          -1.0816    0.1799   -0.1081 C.ar    1  LIG1       -0.0518
     17 C          -2.0239   -1.8889   -0.8751 C.ar    1  LIG1       -0.0518
     18 C           1.7440    1.0169    2.9339 C.ar    1  LIG1        0.2006
     19 C          -3.5067   -0.0647   -0.2546 C.ar    1  LIG1        0.0385
     20 C          -2.3742    0.7016    0.0509 C.ar    1  LIG1       -0.0488
     21 C          -3.3142   -1.3658   -0.7327 C.ar    1  LIG1       -0.0488
     22 C           2.8319   -2.9831   -1.4413 C.ar    1  LIG1       -0.0417
     23 C           1.7971   -2.7995   -2.3326 C.ar    1  LIG1        0.0284
     24 C           2.8287    1.1134    3.8171 C.ar    1  LIG1        0.2574
     25 C          -4.8385    0.4981   -0.0744 C.ar    1  LIG1        0.2480
     26 C           1.5615    2.3950    5.2285 C.ar    1  LIG1        0.0602
     27 C           0.4853    2.2738    4.3469 C.ar    1  LIG1        0.0510
     28 C           1.4303    3.1989    6.4841 C.3     1  LIG1       -0.0208
     29 C           4.9858    0.4986    4.4726 C.3     1  LIG1        0.0805
     30 C          -6.9568    0.5219   -0.1063 C.ar    1  LIG1        0.2047
     31 H           2.8250    0.2456    1.4588 H       1  LIG1        0.1754
     32 H           3.4587   -2.6631    0.5779 H       1  LIG1        0.0638
     33 H          -0.2389    0.8246    0.1284 H       1  LIG1        0.0624
     34 H          -1.9083   -2.9035   -1.2556 H       1  LIG1        0.0624
     35 H          -2.4855    1.7190    0.4243 H       1  LIG1        0.0625
     36 H          -4.1616   -1.9930   -0.9995 H       1  LIG1        0.0625
     37 H           3.7459   -3.4821   -1.7432 H       1  LIG1        0.0633
     38 H           1.8702   -3.1427   -3.3607 H       1  LIG1        0.0830
     39 H          -0.4738    2.7381    4.5561 H       1  LIG1        0.0848
     40 H           2.3527    3.1538    7.0723 H       1  LIG1        0.0293
     41 H           0.6137    2.8123    7.1013 H       1  LIG1        0.0293
     42 H           1.2335    4.2477    6.2408 H       1  LIG1        0.0293
     43 H           5.8553   -0.0558    4.1061 H       1  LIG1        0.0660
     44 H           4.6007   -0.0299    5.3518 H       1  LIG1        0.0660
     45 H           5.3210    1.5080    4.7343 H       1  LIG1        0.0660
     46 H          -7.9513    0.1353   -0.2683 H       1  LIG1        0.1272
@<TRIPOS>BOND
     1     1     2    2
     2     1     3    2
     3     1     6    1
     4     1    12    1
     5     4    24    1
     6     4    29    1
     7     5    25   ar
     8     5    30   ar
     9     6    18    1
    10     7    13   ar
    11     7    23   ar
    12     8    18   ar
    13     8    27   ar
    14     9    24   ar
    15     9    26   ar
    16    10    11   ar
    17    10    25   ar
    18    11    30   ar
    19    12    13   ar
    20    12    15   ar
    21    13    14    1
    22    14    16   ar
    23    14    17   ar
    24    15    22   ar
    25    16    20   ar
    26    17    21   ar
    27    18    24   ar
    28    19    20   ar
    29    19    21   ar
    30    19    25    1
    31    22    23   ar
    32    26    27   ar
    33    26    28    1
    34     6    31    1
    35    15    32    1
    36    16    33    1
    37    17    34    1
    38    20    35    1
    39    21    36    1
    40    22    37    1
    41    23    38    1
    42    27    39    1
    43    28    40    1
    44    28    41    1
    45    28    42    1
    46    29    43    1
    47    29    44    1
    48    29    45    1
    49    30    46    1
@<TRIPOS>MOLECULE
9910224
 46 49 0 0 0
SMALL
GASTEIGER

@<TRIPOS>ATOM
      1 S           1.2809   -1.4319    1.8884 S.O2    1  LIG1        0.0756
      2 O           2.2834   -2.1227    2.6766 O.2     1  LIG1       -0.1499
      3 O          -0.1134   -1.5744    2.2467 O.2     1  LIG1       -0.1499
      4 O           2.7234    0.7927    4.3987 O.3     1  LIG1       -0.4773
      5 O          -5.7615    0.2423   -1.0974 O.2     1  LIG1       -0.4229
      6 N           1.6213    0.2199    1.9108 N.pl3   1  LIG1       -0.1951
      7 N           0.7201   -2.2103   -2.0556 N.ar    1  LIG1       -0.2530
      8 N           3.7265    0.4804    0.9179 N.ar    1  LIG1       -0.2325
      9 N           4.8901    1.0136    3.4681 N.ar    1  LIG1       -0.2137
     10 N          -5.2687    1.2098    0.8598 N.ar    1  LIG1       -0.1076
     11 N          -6.5811    1.5083    0.5566 N.ar    1  LIG1       -0.1156
     12 C           1.4896   -1.8793    0.1904 C.ar    1  LIG1        0.1344
     13 C           0.5032   -1.7366   -0.7878 C.ar    1  LIG1        0.0975
     14 C          -0.8452   -1.1323   -0.6493 C.ar    1  LIG1        0.0023
     15 C           2.6965   -2.5213   -0.1411 C.ar    1  LIG1       -0.0315
     16 C          -1.0786    0.0896   -0.0048 C.ar    1  LIG1       -0.0518
     17 C          -1.9679   -1.7667   -1.2213 C.ar    1  LIG1       -0.0518
     18 C           2.9984    0.5295    2.0492 C.ar    1  LIG1        0.2006
     19 C          -3.4844   -0.0791   -0.3522 C.ar    1  LIG1        0.0385
     20 C          -2.3762    0.5847    0.1828 C.ar    1  LIG1       -0.0488
     21 C          -3.2643   -1.2457   -1.0889 C.ar    1  LIG1       -0.0488
     22 C           2.9070   -2.9935   -1.4310 C.ar    1  LIG1       -0.0417
     23 C           1.8932   -2.8150   -2.3444 C.ar    1  LIG1        0.0284
     24 C           3.5708    0.7586    3.3068 C.ar    1  LIG1        0.2574
     25 C          -4.8152    0.4613   -0.1278 C.ar    1  LIG1        0.2480
     26 C           5.6284    0.9981    2.3302 C.ar    1  LIG1        0.0602
     27 C           5.0486    0.7322    1.0872 C.ar    1  LIG1        0.0510
     28 C           7.0937    1.2833    2.4455 C.3     1  LIG1       -0.0208
     29 C           3.3957    0.4487    5.6020 C.3     1  LIG1        0.0805
     30 C          -6.8211    0.9384   -0.5998 C.ar    1  LIG1        0.2047
     31 H           1.0344    0.6590    2.6217 H       1  LIG1        0.1754
     32 H           3.4769   -2.6609    0.6032 H       1  LIG1        0.0638
     33 H          -0.2555    0.6838    0.3751 H       1  LIG1        0.0624
     34 H          -1.8330   -2.6892   -1.7859 H       1  LIG1        0.0624
     35 H          -2.5131    1.5054    0.7478 H       1  LIG1        0.0625
     36 H          -4.0947   -1.7778   -1.5485 H       1  LIG1        0.0625
     37 H           3.8287   -3.4919   -1.7018 H       1  LIG1        0.0633
     38 H           1.9927   -3.1683   -3.3676 H       1  LIG1        0.0830
     39 H           5.6456    0.7192    0.1790 H       1  LIG1        0.0848
     40 H           7.3737    1.4621    3.4889 H       1  LIG1        0.0293
     41 H           7.3533    2.1754    1.8672 H       1  LIG1        0.0293
     42 H           7.6771    0.4336    2.0780 H       1  LIG1        0.0293
     43 H           2.6443    0.3857    6.3955 H       1  LIG1        0.0660
     44 H           4.1211    1.2172    5.8901 H       1  LIG1        0.0660
     45 H           3.8762   -0.5343    5.5190 H       1  LIG1        0.0660
     46 H          -7.7247    0.9603   -1.1888 H       1  LIG1        0.1272
@<TRIPOS>BOND
     1     1     2    2
     2     1     3    2
     3     1     6    1
     4     1    12    1
     5     4    24    1
     6     4    29    1
     7     5    25   ar
     8     5    30   ar
     9     6    18    1
    10     7    13   ar
    11     7    23   ar
    12     8    18   ar
    13     8    27   ar
    14     9    24   ar
    15     9    26   ar
    16    10    11   ar
    17    10    25   ar
    18    11    30   ar
    19    12    13   ar
    20    12    15   ar
    21    13    14    1
    22    14    16   ar
    23    14    17   ar
    24    15    22   ar
    25    16    20   ar
    26    17    21   ar
    27    18    24   ar
    28    19    20   ar
    29    19    21   ar
    30    19    25    1
    31    22    23   ar
    32    26    27   ar
    33    26    28    1
    34     6    31    1
    35    15    32    1
    36    16    33    1
    37    17    34    1
    38    20    35    1
    39    21    36    1
    40    22    37    1
    41    23    38    1
    42    27    39    1
    43    28    40    1
    44    28    41    1
    45    28    42    1
    46    29    43    1
    47    29    44    1
    48    29    45    1
    49    30    46    1
@<TRIPOS>MOLECULE
9910224
 46 49 0 0 0
SMALL
GASTEIGER

@<TRIPOS>ATOM
      1 S           1.2881   -1.4575    1.8845 S.O2    1  LIG1        0.0756
      2 O           2.2887   -2.1461    2.6684 O.2     1  LIG1       -0.1499
      3 O          -0.1087   -1.6089    2.2334 O.2     1  LIG1       -0.1499
      4 O           2.7243    0.7710    4.4197 O.3     1  LIG1       -0.4773
      5 O          -4.9231    1.7307    0.4236 O.2     1  LIG1       -0.4229
      6 N           1.6134    0.1980    1.9308 N.pl3   1  LIG1       -0.1951
      7 N           0.7150   -2.2004   -2.0596 N.ar    1  LIG1       -0.2530
      8 N           3.7132    0.4681    0.9328 N.ar    1  LIG1       -0.2325
      9 N           4.8851    1.0029    3.4782 N.ar    1  LIG1       -0.2137
     10 N          -5.9596   -0.0430   -0.4609 N.ar    1  LIG1       -0.1076
     11 N          -6.9246    0.8645   -0.0705 N.ar    1  LIG1       -0.1156
     12 C           1.5050   -1.8856    0.1838 C.ar    1  LIG1        0.1344
     13 C           0.5147   -1.7362   -0.7870 C.ar    1  LIG1        0.0975
     14 C          -0.8233   -1.1264   -0.6277 C.ar    1  LIG1        0.0023
     15 C           2.7072   -2.5266   -0.1619 C.ar    1  LIG1       -0.0315
     16 C          -1.0215    0.1538   -0.0918 C.ar    1  LIG1       -0.0518
     17 C          -1.9657   -1.8146   -1.0776 C.ar    1  LIG1       -0.0518
     18 C           2.9886    0.5144    2.0670 C.ar    1  LIG1        0.2006
     19 C          -3.4426   -0.0286   -0.3355 C.ar    1  LIG1        0.0385
     20 C          -2.3098    0.6841    0.0774 C.ar    1  LIG1       -0.0488
     21 C          -3.2519   -1.2764   -0.9381 C.ar    1  LIG1       -0.0488
     22 C           2.9042   -2.9890   -1.4552 C.ar    1  LIG1       -0.0417
     23 C           1.8835   -2.8053   -2.3630 C.ar    1  LIG1        0.0284
     24 C           3.5662    0.7444    3.3236 C.ar    1  LIG1        0.2574
     25 C          -4.7923    0.4924   -0.1571 C.ar    1  LIG1        0.2480
     26 C           5.6193    0.9870    2.3370 C.ar    1  LIG1        0.0602
     27 C           5.0358    0.7204    1.0966 C.ar    1  LIG1        0.0510
     28 C           7.0850    1.2730    2.4436 C.3     1  LIG1       -0.0208
     29 C           3.4147    0.4581    5.6258 C.3     1  LIG1        0.0805
     30 C          -6.2752    1.8827    0.4395 C.ar    1  LIG1        0.2047
     31 H           1.0262    0.6177    2.6530 H       1  LIG1        0.1754
     32 H           3.4920   -2.6738    0.5775 H       1  LIG1        0.0638
     33 H          -0.1737    0.7658    0.2022 H       1  LIG1        0.0624
     34 H          -1.8557   -2.7888   -1.5527 H       1  LIG1        0.0624
     35 H          -2.4117    1.6646    0.5376 H       1  LIG1        0.0625
     36 H          -4.1044   -1.8478   -1.3029 H       1  LIG1        0.0625
     37 H           3.8229   -3.4884   -1.7399 H       1  LIG1        0.0633
     38 H           1.9730   -3.1532   -3.3880 H       1  LIG1        0.0830
     39 H           5.6265    0.7043    0.1863 H       1  LIG1        0.0848
     40 H           7.3705    1.4548    3.4846 H       1  LIG1        0.0293
     41 H           7.3403    2.1633    1.8609 H       1  LIG1        0.0293
     42 H           7.6658    0.4227    2.0746 H       1  LIG1        0.0293
     43 H           2.6685    0.3788    6.4223 H       1  LIG1        0.0660
     44 H           4.1158    1.2516    5.9021 H       1  LIG1        0.0660
     45 H           3.9244   -0.5091    5.5486 H       1  LIG1        0.0660
     46 H          -6.6684    2.7969    0.8566 H       1  LIG1        0.1272
@<TRIPOS>BOND
     1     1     2    2
     2     1     3    2
     3     1     6    1
     4     1    12    1
     5     4    24    1
     6     4    29    1
     7     5    25   ar
     8     5    30   ar
     9     6    18    1
    10     7    13   ar
    11     7    23   ar
    12     8    18   ar
    13     8    27   ar
    14     9    24   ar
    15     9    26   ar
    16    10    11   ar
    17    10    25   ar
    18    11    30   ar
    19    12    13   ar
    20    12    15   ar
    21    13    14    1
    22    14    16   ar
    23    14    17   ar
    24    15    22   ar
    25    16    20   ar
    26    17    21   ar
    27    18    24   ar
    28    19    20   ar
    29    19    21   ar
    30    19    25    1
    31    22    23   ar
    32    26    27   ar
    33    26    28    1
    34     6    31    1
    35    15    32    1
    36    16    33    1
    37    17    34    1
    38    20    35    1
    39    21    36    1
    40    22    37    1
    41    23    38    1
    42    27    39    1
    43    28    40    1
    44    28    41    1
    45    28    42    1
    46    29    43    1
    47    29    44    1
    48    29    45    1
    49    30    46    1
@<TRIPOS>MOLECULE
9910224
 46 49 0 0 0
SMALL
GASTEIGER

@<TRIPOS>ATOM
      1 S           1.2731   -1.5573    1.8508 S.O2    1  LIG1        0.0756
      2 O           2.2961   -2.2429    2.6175 O.2     1  LIG1       -0.1499
      3 O          -0.1170   -1.7946    2.1720 O.2     1  LIG1       -0.1499
      4 O           2.6786    0.6252    4.4715 O.3     1  LIG1       -0.4773
      5 O          -5.8142   -0.3220   -0.3764 O.2     1  LIG1       -0.4229
      6 N           1.5269    0.1037    1.9737 N.pl3   1  LIG1       -0.1951
      7 N           0.7525   -2.1116   -2.1261 N.ar    1  LIG1       -0.2530
      8 N           3.5929    0.4748    0.9527 N.ar    1  LIG1       -0.2325
      9 N           4.8126    0.9387    3.4868 N.ar    1  LIG1       -0.2137
     10 N          -5.0999    1.6783    0.3255 N.ar    1  LIG1       -0.1076
     11 N          -6.4814    1.6920    0.3295 N.ar    1  LIG1       -0.1156
     12 C           1.5301   -1.9099    0.1388 C.ar    1  LIG1        0.1344
     13 C           0.5472   -1.7246   -0.8297 C.ar    1  LIG1        0.0975
     14 C          -0.7903   -1.1474   -0.6278 C.ar    1  LIG1        0.0023
     15 C           2.7447   -2.5075   -0.2332 C.ar    1  LIG1       -0.0315
     16 C          -0.9805    0.1868   -0.2412 C.ar    1  LIG1       -0.0518
     17 C          -1.9327   -1.9265   -0.8777 C.ar    1  LIG1       -0.0518
     18 C           2.8928    0.4660    2.1041 C.ar    1  LIG1        0.2006
     19 C          -3.4062   -0.0834   -0.2891 C.ar    1  LIG1        0.0385
     20 C          -2.2702    0.7071   -0.0614 C.ar    1  LIG1       -0.0488
     21 C          -3.2206   -1.4055   -0.7099 C.ar    1  LIG1       -0.0488
     22 C           2.9549   -2.8895   -1.5516 C.ar    1  LIG1       -0.0417
     23 C           1.9353   -2.6734   -2.4553 C.ar    1  LIG1        0.0284
     24 C           3.4919    0.6680    3.3539 C.ar    1  LIG1        0.2574
     25 C          -4.7354    0.4810   -0.0930 C.ar    1  LIG1        0.2480
     26 C           5.5221    0.9680    2.3308 C.ar    1  LIG1        0.0602
     27 C           4.9150    0.7387    1.0957 C.ar    1  LIG1        0.0510
     28 C           6.9903    1.2468    2.4171 C.3     1  LIG1       -0.0208
     29 C           3.4215    0.5146    5.6817 C.3     1  LIG1        0.0805
     30 C          -6.8542    0.5042   -0.0866 C.ar    1  LIG1        0.2047
     31 H           0.9298    0.4695    2.7152 H       1  LIG1        0.1754
     32 H           3.5269   -2.6805    0.5026 H       1  LIG1        0.0638
     33 H          -0.1253    0.8411   -0.0853 H       1  LIG1        0.0624
     34 H          -1.8187   -2.9565   -1.2135 H       1  LIG1        0.0624
     35 H          -2.3813    1.7440    0.2534 H       1  LIG1        0.0625
     36 H          -4.0726   -2.0507   -0.9137 H       1  LIG1        0.0625
     37 H           3.8850   -3.3522   -1.8609 H       1  LIG1        0.0633
     38 H           2.0382   -2.9573   -3.4988 H       1  LIG1        0.0830
     39 H           5.4867    0.7582    0.1728 H       1  LIG1        0.0848
     40 H           7.2933    1.4204    3.4547 H       1  LIG1        0.0293
     41 H           7.2426    2.1384    1.8353 H       1  LIG1        0.0293
     42 H           7.5603    0.3943    2.0342 H       1  LIG1        0.0293
     43 H           2.7062    0.3967    6.5012 H       1  LIG1        0.0660
     44 H           4.0029    1.4225    5.8750 H       1  LIG1        0.0660
     45 H           4.0664   -0.3714    5.6725 H       1  LIG1        0.0660
     46 H          -7.8517    0.1189   -0.2239 H       1  LIG1        0.1272
@<TRIPOS>BOND
     1     1     2    2
     2     1     3    2
     3     1     6    1
     4     1    12    1
     5     4    24    1
     6     4    29    1
     7     5    25   ar
     8     5    30   ar
     9     6    18    1
    10     7    13   ar
    11     7    23   ar
    12     8    18   ar
    13     8    27   ar
    14     9    24   ar
    15     9    26   ar
    16    10    11   ar
    17    10    25   ar
    18    11    30   ar
    19    12    13   ar
    20    12    15   ar
    21    13    14    1
    22    14    16   ar
    23    14    17   ar
    24    15    22   ar
    25    16    20   ar
    26    17    21   ar
    27    18    24   ar
    28    19    20   ar
    29    19    21   ar
    30    19    25    1
    31    22    23   ar
    32    26    27   ar
    33    26    28    1
    34     6    31    1
    35    15    32    1
    36    16    33    1
    37    17    34    1
    38    20    35    1
    39    21    36    1
    40    22    37    1
    41    23    38    1
    42    27    39    1
    43    28    40    1
    44    28    41    1
    45    28    42    1
    46    29    43    1
    47    29    44    1
    48    29    45    1
    49    30    46    1
@<TRIPOS>MOLECULE
9910224
 46 49 0 0 0
SMALL
GASTEIGER

@<TRIPOS>ATOM
      1 S           1.3033   -1.5505    1.8723 S.O2    1  LIG1        0.0756
      2 O           2.3259   -2.2298    2.6434 O.2     1  LIG1       -0.1499
      3 O          -0.0907   -1.7696    2.2029 O.2     1  LIG1       -0.1499
      4 O           2.6732    0.8698    4.4357 O.3     1  LIG1       -0.4773
      5 O          -4.8428    1.7685    0.3877 O.2     1  LIG1       -0.4229
      6 N           1.5645    0.1095    1.9843 N.pl3   1  LIG1       -0.1951
      7 N           0.7659   -2.1153   -2.0993 N.ar    1  LIG1       -0.2530
      8 N           3.6454    0.3908    0.9622 N.ar    1  LIG1       -0.2325
      9 N           4.8224    1.0998    3.4587 N.ar    1  LIG1       -0.2137
     10 N          -5.8852   -0.0502   -0.3938 N.ar    1  LIG1       -0.1076
     11 N          -6.8481    0.8758   -0.0472 N.ar    1  LIG1       -0.1156
     12 C           1.5488   -1.9195    0.1632 C.ar    1  LIG1        0.1344
     13 C           0.5661   -1.7260   -0.8038 C.ar    1  LIG1        0.0975
     14 C          -0.7649   -1.1331   -0.6031 C.ar    1  LIG1        0.0023
     15 C           2.7543   -2.5365   -0.2088 C.ar    1  LIG1       -0.0315
     16 C          -0.9411    0.2049   -0.2213 C.ar    1  LIG1       -0.0518
     17 C          -1.9161   -1.8976   -0.8574 C.ar    1  LIG1       -0.0518
     18 C           2.9299    0.4756    2.1005 C.ar    1  LIG1        0.2006
     19 C          -3.3690   -0.0314   -0.2885 C.ar    1  LIG1        0.0385
     20 C          -2.2250    0.7448   -0.0532 C.ar    1  LIG1       -0.0488
     21 C          -3.1968   -1.3573   -0.7030 C.ar    1  LIG1       -0.0488
     22 C           2.9574   -2.9228   -1.5278 C.ar    1  LIG1       -0.0417
     23 C           1.9402   -2.6934   -2.4305 C.ar    1  LIG1        0.0284
     24 C           3.5056    0.8077    3.3329 C.ar    1  LIG1        0.2574
     25 C          -4.7161    0.5016   -0.1280 C.ar    1  LIG1        0.2480
     26 C           5.5508    1.0205    2.3168 C.ar    1  LIG1        0.0602
     27 C           4.9640    0.6750    1.0994 C.ar    1  LIG1        0.0510
     28 C           7.0163    1.3163    2.3982 C.3     1  LIG1       -0.0208
     29 C           3.3860    1.0649    5.6537 C.3     1  LIG1        0.0805
     30 C          -6.1960    1.9193    0.4062 C.ar    1  LIG1        0.2047
     31 H           0.9698    0.4857    2.7220 H       1  LIG1        0.1754
     32 H           3.5354   -2.7178    0.5254 H       1  LIG1        0.0638
     33 H          -0.0776    0.8481   -0.0652 H       1  LIG1        0.0624
     34 H          -1.8154   -2.9297   -1.1906 H       1  LIG1        0.0624
     35 H          -2.3167    1.7848    0.2541 H       1  LIG1        0.0625
     36 H          -4.0618   -1.9849   -0.9119 H       1  LIG1        0.0625
     37 H           3.8808   -3.3986   -1.8376 H       1  LIG1        0.0633
     38 H           2.0375   -2.9791   -3.4740 H       1  LIG1        0.0830
     39 H           5.5498    0.6127    0.1869 H       1  LIG1        0.0848
     40 H           7.3103    1.5461    3.4272 H       1  LIG1        0.0293
     41 H           7.2641    2.1785    1.7715 H       1  LIG1        0.0293
     42 H           7.5966    0.4505    2.0644 H       1  LIG1        0.0293
     43 H           2.6584    1.0516    6.4709 H       1  LIG1        0.0660
     44 H           3.8847    2.0403    5.6688 H       1  LIG1        0.0660
     45 H           4.1010    0.2539    5.8309 H       1  LIG1        0.0660
     46 H          -6.5883    2.8516    0.7814 H       1  LIG1        0.1272
@<TRIPOS>BOND
     1     1     2    2
     2     1     3    2
     3     1     6    1
     4     1    12    1
     5     4    24    1
     6     4    29    1
     7     5    25   ar
     8     5    30   ar
     9     6    18    1
    10     7    13   ar
    11     7    23   ar
    12     8    18   ar
    13     8    27   ar
    14     9    24   ar
    15     9    26   ar
    16    10    11   ar
    17    10    25   ar
    18    11    30   ar
    19    12    13   ar
    20    12    15   ar
    21    13    14    1
    22    14    16   ar
    23    14    17   ar
    24    15    22   ar
    25    16    20   ar
    26    17    21   ar
    27    18    24   ar
    28    19    20   ar
    29    19    21   ar
    30    19    25    1
    31    22    23   ar
    32    26    27   ar
    33    26    28    1
    34     6    31    1
    35    15    32    1
    36    16    33    1
    37    17    34    1
    38    20    35    1
    39    21    36    1
    40    22    37    1
    41    23    38    1
    42    27    39    1
    43    28    40    1
    44    28    41    1
    45    28    42    1
    46    29    43    1
    47    29    44    1
    48    29    45    1
    49    30    46    1
@<TRIPOS>MOLECULE
9910224
 46 49 0 0 0
SMALL
GASTEIGER

@<TRIPOS>ATOM
      1 S           1.3117   -1.5930    1.8720 S.O2    1  LIG1        0.0756
      2 O           2.3386   -2.2885    2.6239 O.2     1  LIG1       -0.1499
      3 O          -0.0789   -1.8240    2.1992 O.2     1  LIG1       -0.1499
      4 O           2.6903    0.8335    4.4649 O.3     1  LIG1       -0.4773
      5 O          -5.7493   -0.0534   -0.7909 O.2     1  LIG1       -0.4229
      6 N           1.5713    0.0637    2.0212 N.pl3   1  LIG1       -0.1951
      7 N           0.7631   -2.0930   -2.1091 N.ar    1  LIG1       -0.2530
      8 N           3.6456    0.3583    0.9863 N.ar    1  LIG1       -0.2325
      9 N           4.8310    1.0837    3.4736 N.ar    1  LIG1       -0.2137
     10 N          -5.0644    1.7091    0.4044 N.ar    1  LIG1       -0.1076
     11 N          -6.4270    1.8269    0.2118 N.ar    1  LIG1       -0.1156
     12 C           1.5507   -1.9244    0.1536 C.ar    1  LIG1        0.1344
     13 C           0.5644   -1.7185   -0.8077 C.ar    1  LIG1        0.0975
     14 C          -0.7684   -1.1237   -0.6054 C.ar    1  LIG1        0.0023
     15 C           2.7558   -2.5342   -0.2318 C.ar    1  LIG1       -0.0315
     16 C          -0.9481    0.1856   -0.1375 C.ar    1  LIG1       -0.0518
     17 C          -1.9185   -1.8512   -0.9600 C.ar    1  LIG1       -0.0518
     18 C           2.9362    0.4349    2.1292 C.ar    1  LIG1        0.2006
     19 C          -3.3735   -0.0065   -0.3332 C.ar    1  LIG1        0.0385
     20 C          -2.2319    0.7286    0.0157 C.ar    1  LIG1       -0.0488
     21 C          -3.2003   -1.3037   -0.8290 C.ar    1  LIG1       -0.0488
     22 C           2.9576   -2.9022   -1.5555 C.ar    1  LIG1       -0.0417
     23 C           1.9376   -2.6636   -2.4516 C.ar    1  LIG1        0.0284
     24 C           3.5164    0.7776    3.3571 C.ar    1  LIG1        0.2574
     25 C          -4.6942    0.5923   -0.1930 C.ar    1  LIG1        0.2480
     26 C           5.5526    1.0121    2.3271 C.ar    1  LIG1        0.0602
     27 C           4.9614    0.6584    1.1142 C.ar    1  LIG1        0.0510
     28 C           7.0148    1.3255    2.3983 C.3     1  LIG1       -0.0208
     29 C           3.4052    1.0651    5.6750 C.3     1  LIG1        0.0805
     30 C          -6.7822    0.7815   -0.4953 C.ar    1  LIG1        0.2047
     31 H           0.9807    0.4263    2.7701 H       1  LIG1        0.1754
     32 H           3.5402   -2.7243    0.4978 H       1  LIG1        0.0638
     33 H          -0.0890    0.8103    0.0947 H       1  LIG1        0.0624
     34 H          -1.8144   -2.8587   -1.3611 H       1  LIG1        0.0624
     35 H          -2.3333    1.7451    0.3935 H       1  LIG1        0.0625
     36 H          -4.0565   -1.9067   -1.1239 H       1  LIG1        0.0625
     37 H           3.8817   -3.3706   -1.8742 H       1  LIG1        0.0633
     38 H           2.0324   -2.9350   -3.4990 H       1  LIG1        0.0830
     39 H           5.5411    0.6033    0.1978 H       1  LIG1        0.0848
     40 H           7.3133    1.5595    3.4254 H       1  LIG1        0.0293
     41 H           7.2483    2.1903    1.7697 H       1  LIG1        0.0293
     42 H           7.6035    0.4665    2.0611 H       1  LIG1        0.0293
     43 H           2.6821    1.0527    6.4962 H       1  LIG1        0.0660
     44 H           3.8850    2.0500    5.6698 H       1  LIG1        0.0660
     45 H           4.1366    0.2713    5.8630 H       1  LIG1        0.0660
     46 H          -7.7605    0.5119   -0.8625 H       1  LIG1        0.1272
@<TRIPOS>BOND
     1     1     2    2
     2     1     3    2
     3     1     6    1
     4     1    12    1
     5     4    24    1
     6     4    29    1
     7     5    25   ar
     8     5    30   ar
     9     6    18    1
    10     7    13   ar
    11     7    23   ar
    12     8    18   ar
    13     8    27   ar
    14     9    24   ar
    15     9    26   ar
    16    10    11   ar
    17    10    25   ar
    18    11    30   ar
    19    12    13   ar
    20    12    15   ar
    21    13    14    1
    22    14    16   ar
    23    14    17   ar
    24    15    22   ar
    25    16    20   ar
    26    17    21   ar
    27    18    24   ar
    28    19    20   ar
    29    19    21   ar
    30    19    25    1
    31    22    23   ar
    32    26    27   ar
    33    26    28    1
    34     6    31    1
    35    15    32    1
    36    16    33    1
    37    17    34    1
    38    20    35    1
    39    21    36    1
    40    22    37    1
    41    23    38    1
    42    27    39    1
    43    28    40    1
    44    28    41    1
    45    28    42    1
    46    29    43    1
    47    29    44    1
    48    29    45    1
    49    30    46    1
@<TRIPOS>MOLECULE
9910224
 46 49 0 0 0
SMALL
GASTEIGER

@<TRIPOS>ATOM
      1 S           1.3430   -1.3293    1.9004 S.O2    1  LIG1        0.0756
      2 O           2.3769   -2.0131    2.6540 O.2     1  LIG1       -0.1499
      3 O          -0.0339   -1.4018    2.3222 O.2     1  LIG1       -0.1499
      4 O           4.0459    0.5302    3.4495 O.3     1  LIG1       -0.4773
      5 O          -5.8856   -0.1928   -0.6292 O.2     1  LIG1       -0.4229
      6 N           1.8691    0.2750    1.7236 N.pl3   1  LIG1       -0.1951
      7 N           0.6417   -2.1960   -1.9989 N.ar    1  LIG1       -0.2530
      8 N           0.5749    1.5757    3.1820 N.ar    1  LIG1       -0.2325
      9 N           2.7724    1.8107    4.9872 N.ar    1  LIG1       -0.2137
     10 N          -5.2061    1.6833    0.3820 N.ar    1  LIG1       -0.1076
     11 N          -6.5799    1.7413    0.2518 N.ar    1  LIG1       -0.1156
     12 C           1.4794   -1.8757    0.2223 C.ar    1  LIG1        0.1344
     13 C           0.4665   -1.7316   -0.7222 C.ar    1  LIG1        0.0975
     14 C          -0.8695   -1.1323   -0.5377 C.ar    1  LIG1        0.0023
     15 C           2.6739   -2.5201   -0.1482 C.ar    1  LIG1       -0.0315
     16 C          -1.0730    0.1690   -0.0579 C.ar    1  LIG1       -0.0518
     17 C          -2.0109   -1.8619   -0.9208 C.ar    1  LIG1       -0.0518
     18 C           1.7692    1.0069    2.9445 C.ar    1  LIG1        0.2006
     19 C          -3.4950   -0.0431   -0.2875 C.ar    1  LIG1        0.0385
     20 C          -2.3653    0.6975    0.0830 C.ar    1  LIG1       -0.0488
     21 C          -3.3004   -1.3299   -0.8011 C.ar    1  LIG1       -0.0488
     22 C           2.8414   -2.9850   -1.4454 C.ar    1  LIG1       -0.0417
     23 C           1.8034   -2.7982   -2.3314 C.ar    1  LIG1        0.0284
     24 C           2.8479    1.1072    3.8344 C.ar    1  LIG1        0.2574
     25 C          -4.8252    0.5336   -0.1426 C.ar    1  LIG1        0.2480
     26 C           1.5691    2.3885    5.2353 C.ar    1  LIG1        0.0602
     27 C           0.4987    2.2636    4.3471 C.ar    1  LIG1        0.0510
     28 C           1.4279    3.1947    6.4886 C.3     1  LIG1       -0.0208
     29 C           5.0052    0.5047    4.5018 C.3     1  LIG1        0.0805
     30 C          -6.9322    0.6283   -0.3450 C.ar    1  LIG1        0.2047
     31 H           2.8615    0.2318    1.4810 H       1  LIG1        0.1754
     32 H           3.4768   -2.6709    0.5712 H       1  LIG1        0.0638
     33 H          -0.2339    0.8005    0.2221 H       1  LIG1        0.0624
     34 H          -1.8946   -2.8639   -1.3329 H       1  LIG1        0.0624
     35 H          -2.4781    1.7028    0.4873 H       1  LIG1        0.0625
     36 H          -4.1449   -1.9387   -1.1160 H       1  LIG1        0.0625
     37 H           3.7535   -3.4850   -1.7520 H       1  LIG1        0.0633
     38 H           1.8713   -3.1385   -3.3609 H       1  LIG1        0.0830
     39 H          -0.4627    2.7262    4.5496 H       1  LIG1        0.0848
     40 H           2.3471    3.1540    7.0823 H       1  LIG1        0.0293
     41 H           0.6091    2.8065    7.1018 H       1  LIG1        0.0293
     42 H           1.2289    4.2423    6.2420 H       1  LIG1        0.0293
     43 H           5.8793   -0.0461    4.1409 H       1  LIG1        0.0660
     44 H           4.6202   -0.0220    5.3820 H       1  LIG1        0.0660
     45 H           5.3335    1.5173    4.7600 H       1  LIG1        0.0660
     46 H          -7.9180    0.2954   -0.6307 H       1  LIG1        0.1272
@<TRIPOS>BOND
     1     1     2    2
     2     1     3    2
     3     1     6    1
     4     1    12    1
     5     4    24    1
     6     4    29    1
     7     5    25   ar
     8     5    30   ar
     9     6    18    1
    10     7    13   ar
    11     7    23   ar
    12     8    18   ar
    13     8    27   ar
    14     9    24   ar
    15     9    26   ar
    16    10    11   ar
    17    10    25   ar
    18    11    30   ar
    19    12    13   ar
    20    12    15   ar
    21    13    14    1
    22    14    16   ar
    23    14    17   ar
    24    15    22   ar
    25    16    20   ar
    26    17    21   ar
    27    18    24   ar
    28    19    20   ar
    29    19    21   ar
    30    19    25    1
    31    22    23   ar
    32    26    27   ar
    33    26    28    1
    34     6    31    1
    35    15    32    1
    36    16    33    1
    37    17    34    1
    38    20    35    1
    39    21    36    1
    40    22    37    1
    41    23    38    1
    42    27    39    1
    43    28    40    1
    44    28    41    1
    45    28    42    1
    46    29    43    1
    47    29    44    1
    48    29    45    1
    49    30    46    1
@<TRIPOS>MOLECULE
9910224
 46 49 0 0 0
SMALL
GASTEIGER

@<TRIPOS>ATOM
      1 S           1.2911   -1.3413    1.9212 S.O2    1  LIG1        0.0756
      2 O           2.3105   -2.0266    2.6912 O.2     1  LIG1       -0.1499
      3 O          -0.0919   -1.4079    2.3226 O.2     1  LIG1       -0.1499
      4 O           4.0303    0.4995    3.4252 O.3     1  LIG1       -0.4773
      5 O          -5.0196    1.5565    0.7252 O.2     1  LIG1       -0.4229
      6 N           1.8242    0.2616    1.7477 N.pl3   1  LIG1       -0.1951
      7 N           0.6759   -2.1656   -2.0058 N.ar    1  LIG1       -0.2530
      8 N           0.5645    1.5769    3.2277 N.ar    1  LIG1       -0.2325
      9 N           2.8097    1.8181    4.9737 N.ar    1  LIG1       -0.2137
     10 N          -5.9973    0.0301   -0.5854 N.ar    1  LIG1       -0.1076
     11 N          -6.9857    0.8408   -0.0641 N.ar    1  LIG1       -0.1156
     12 C           1.4532   -1.8844    0.2418 C.ar    1  LIG1        0.1344
     13 C           0.4686   -1.7134   -0.7294 C.ar    1  LIG1        0.0975
     14 C          -0.8683   -1.1012   -0.5740 C.ar    1  LIG1        0.0023
     15 C           2.6483   -2.5429   -0.1017 C.ar    1  LIG1       -0.0315
     16 C          -1.0804    0.1660   -0.0140 C.ar    1  LIG1       -0.0518
     17 C          -2.0022   -1.7867   -1.0498 C.ar    1  LIG1       -0.0518
     18 C           1.7482    0.9912    2.9705 C.ar    1  LIG1        0.2006
     19 C          -3.4967   -0.0269   -0.2884 C.ar    1  LIG1        0.0385
     20 C          -2.3744    0.6846    0.1508 C.ar    1  LIG1       -0.0488
     21 C          -3.2923   -1.2593   -0.9166 C.ar    1  LIG1       -0.0488
     22 C           2.8459   -2.9968   -1.3981 C.ar    1  LIG1       -0.0417
     23 C           1.8370   -2.7833   -2.3108 C.ar    1  LIG1        0.0284
     24 C           2.8482    1.0929    3.8325 C.ar    1  LIG1        0.2574
     25 C          -4.8513    0.4748   -0.1041 C.ar    1  LIG1        0.2480
     26 C           1.6201    2.4162    5.2400 C.ar    1  LIG1        0.0602
     27 C           0.5261    2.2864    4.3815 C.ar    1  LIG1        0.0510
     28 C           1.5243    3.2576    6.4741 C.3     1  LIG1       -0.0208
     29 C           5.0143    0.4741    4.4537 C.3     1  LIG1        0.0805
     30 C          -6.3707    1.7112    0.7002 C.ar    1  LIG1        0.2047
     31 H           2.8107    0.2148    1.4853 H       1  LIG1        0.1754
     32 H           3.4291   -2.7117    0.6377 H       1  LIG1        0.0638
     33 H          -0.2486    0.7755    0.3260 H       1  LIG1        0.0624
     34 H          -1.8827   -2.7547   -1.5364 H       1  LIG1        0.0624
     35 H          -2.4842    1.6521    0.6359 H       1  LIG1        0.0625
     36 H          -4.1377   -1.8310   -1.2959 H       1  LIG1        0.0625
     37 H           3.7593   -3.5072   -1.6837 H       1  LIG1        0.0633
     38 H           1.9294   -3.1148   -3.3415 H       1  LIG1        0.0830
     39 H          -0.4230    2.7658    4.5988 H       1  LIG1        0.0848
     40 H           2.4546    3.2100    7.0498 H       1  LIG1        0.0293
     41 H           0.7093    2.9069    7.1141 H       1  LIG1        0.0293
     42 H           1.3461    4.3031    6.2034 H       1  LIG1        0.0293
     43 H           5.8664   -0.1038    4.0828 H       1  LIG1        0.0660
     44 H           4.6409   -0.0250    5.3548 H       1  LIG1        0.0660
     45 H           5.3701    1.4847    4.6806 H       1  LIG1        0.0660
     46 H          -6.7915    2.5072    1.2938 H       1  LIG1        0.1272
@<TRIPOS>BOND
     1     1     2    2
     2     1     3    2
     3     1     6    1
     4     1    12    1
     5     4    24    1
     6     4    29    1
     7     5    25   ar
     8     5    30   ar
     9     6    18    1
    10     7    13   ar
    11     7    23   ar
    12     8    18   ar
    13     8    27   ar
    14     9    24   ar
    15     9    26   ar
    16    10    11   ar
    17    10    25   ar
    18    11    30   ar
    19    12    13   ar
    20    12    15   ar
    21    13    14    1
    22    14    16   ar
    23    14    17   ar
    24    15    22   ar
    25    16    20   ar
    26    17    21   ar
    27    18    24   ar
    28    19    20   ar
    29    19    21   ar
    30    19    25    1
    31    22    23   ar
    32    26    27   ar
    33    26    28    1
    34     6    31    1
    35    15    32    1
    36    16    33    1
    37    17    34    1
    38    20    35    1
    39    21    36    1
    40    22    37    1
    41    23    38    1
    42    27    39    1
    43    28    40    1
    44    28    41    1
    45    28    42    1
    46    29    43    1
    47    29    44    1
    48    29    45    1
    49    30    46    1
@<TRIPOS>MOLECULE
9910224
 46 49 0 0 0
SMALL
GASTEIGER

@<TRIPOS>ATOM
      1 S           1.2823   -1.5641    1.8623 S.O2    1  LIG1        0.0756
      2 O           2.3046   -2.2597    2.6214 O.2     1  LIG1       -0.1499
      3 O          -0.1081   -1.7893    2.1859 O.2     1  LIG1       -0.1499
      4 O           2.6699    0.8470    4.4563 O.3     1  LIG1       -0.4773
      5 O          -4.9414    1.4943    0.7576 O.2     1  LIG1       -0.4229
      6 N           1.5460    0.0930    2.0093 N.pl3   1  LIG1       -0.1951
      7 N           0.7613   -2.0549   -2.1248 N.ar    1  LIG1       -0.2530
      8 N           3.6209    0.3828    0.9749 N.ar    1  LIG1       -0.2325
      9 N           4.8122    1.0846    3.4657 N.ar    1  LIG1       -0.2137
     10 N          -5.9289   -0.1002   -0.4634 N.ar    1  LIG1       -0.1076
     11 N          -6.9177    0.7082    0.0629 N.ar    1  LIG1       -0.1156
     12 C           1.5311   -1.8979    0.1450 C.ar    1  LIG1        0.1344
     13 C           0.5516   -1.6897   -0.8233 C.ar    1  LIG1        0.0975
     14 C          -0.7915   -1.1209   -0.6182 C.ar    1  LIG1        0.0023
     15 C           2.7385   -2.5076   -0.2330 C.ar    1  LIG1       -0.0315
     16 C          -0.9987    0.1811   -0.1396 C.ar    1  LIG1       -0.0518
     17 C          -1.9259   -1.8780   -0.9591 C.ar    1  LIG1       -0.0518
     18 C           2.9125    0.4583    2.1184 C.ar    1  LIG1        0.2006
     19 C          -3.4202   -0.0951   -0.2507 C.ar    1  LIG1        0.0385
     20 C          -2.2948    0.6807    0.0595 C.ar    1  LIG1       -0.0488
     21 C          -3.2185   -1.3739   -0.7826 C.ar    1  LIG1       -0.0488
     22 C           2.9499   -2.8713   -1.5564 C.ar    1  LIG1       -0.0417
     23 C           1.9382   -2.6255   -2.4600 C.ar    1  LIG1        0.0284
     24 C           3.4958    0.7889    3.3481 C.ar    1  LIG1        0.2574
     25 C          -4.7779    0.3868   -0.0393 C.ar    1  LIG1        0.2480
     26 C           5.5334    1.0118    2.3185 C.ar    1  LIG1        0.0602
     27 C           4.9385    0.6703    1.1038 C.ar    1  LIG1        0.0510
     28 C           6.9986    1.3100    2.3908 C.3     1  LIG1       -0.0208
     29 C           3.3882    1.0577    5.6682 C.3     1  LIG1        0.0805
     30 C          -6.2972    1.6177    0.7747 C.ar    1  LIG1        0.2047
     31 H           0.9601    0.4533    2.7635 H       1  LIG1        0.1754
     32 H           3.5167   -2.7024    0.5023 H       1  LIG1        0.0638
     33 H          -0.1509    0.8267    0.0778 H       1  LIG1        0.0624
     34 H          -1.8027   -2.8775   -1.3728 H       1  LIG1        0.0624
     35 H          -2.4111    1.6880    0.4522 H       1  LIG1        0.0625
     36 H          -4.0694   -1.9970   -1.0560 H       1  LIG1        0.0625
     37 H           3.8753   -3.3417   -1.8691 H       1  LIG1        0.0633
     38 H           2.0412   -2.8928   -3.5079 H       1  LIG1        0.0830
     39 H           5.5179    0.6137    0.1869 H       1  LIG1        0.0848
     40 H           7.2987    1.5388    3.4184 H       1  LIG1        0.0293
     41 H           7.2410    2.1732    1.7640 H       1  LIG1        0.0293
     42 H           7.5780    0.4452    2.0521 H       1  LIG1        0.0293
     43 H           2.6655    1.0457    6.4898 H       1  LIG1        0.0660
     44 H           3.8797    2.0367    5.6725 H       1  LIG1        0.0660
     45 H           4.1103    0.2533    5.8478 H       1  LIG1        0.0660
     46 H          -6.7163    2.4236    1.3554 H       1  LIG1        0.1272
@<TRIPOS>BOND
     1     1     2    2
     2     1     3    2
     3     1     6    1
     4     1    12    1
     5     4    24    1
     6     4    29    1
     7     5    25   ar
     8     5    30   ar
     9     6    18    1
    10     7    13   ar
    11     7    23   ar
    12     8    18   ar
    13     8    27   ar
    14     9    24   ar
    15     9    26   ar
    16    10    11   ar
    17    10    25   ar
    18    11    30   ar
    19    12    13   ar
    20    12    15   ar
    21    13    14    1
    22    14    16   ar
    23    14    17   ar
    24    15    22   ar
    25    16    20   ar
    26    17    21   ar
    27    18    24   ar
    28    19    20   ar
    29    19    21   ar
    30    19    25    1
    31    22    23   ar
    32    26    27   ar
    33    26    28    1
    34     6    31    1
    35    15    32    1
    36    16    33    1
    37    17    34    1
    38    20    35    1
    39    21    36    1
    40    22    37    1
    41    23    38    1
    42    27    39    1
    43    28    40    1
    44    28    41    1
    45    28    42    1
    46    29    43    1
    47    29    44    1
    48    29    45    1
    49    30    46    1
@<TRIPOS>MOLECULE
9910224
 46 49 0 0 0
SMALL
GASTEIGER

@<TRIPOS>ATOM
      1 S           1.3437   -1.5124    1.8205 S.O2    1  LIG1        0.0756
      2 O           2.4180   -2.1595    2.5510 O.2     1  LIG1       -0.1499
      3 O          -0.0200   -1.7396    2.2399 O.2     1  LIG1       -0.1499
      4 O           3.7773    0.4972    3.7093 O.3     1  LIG1       -0.4773
      5 O          -5.7904   -0.0061   -0.8311 O.2     1  LIG1       -0.4229
      6 N           1.6273    0.1548    1.9077 N.pl3   1  LIG1       -0.1951
      7 N           0.6610   -2.1983   -2.1137 N.ar    1  LIG1       -0.2530
      8 N           3.0593    0.6723    0.1479 N.ar    1  LIG1       -0.2325
      9 N           5.2729    0.9137    1.9167 N.ar    1  LIG1       -0.2137
     10 N          -5.1070    1.6906    0.4565 N.ar    1  LIG1       -0.1076
     11 N          -6.4646    1.8329    0.2471 N.ar    1  LIG1       -0.1156
     12 C           1.5082   -1.9474    0.1170 C.ar    1  LIG1        0.1344
     13 C           0.4998   -1.7619   -0.8249 C.ar    1  LIG1        0.0975
     14 C          -0.8247   -1.1478   -0.6161 C.ar    1  LIG1        0.0023
     15 C           2.6891   -2.6057   -0.2714 C.ar    1  LIG1       -0.0315
     16 C          -1.9834   -1.8540   -0.9905 C.ar    1  LIG1       -0.0518
     17 C          -0.9960    0.1541   -0.1261 C.ar    1  LIG1       -0.0518
     18 C           2.9325    0.5332    1.4820 C.ar    1  LIG1        0.2006
     19 C          -3.4230   -0.0090   -0.3341 C.ar    1  LIG1        0.0385
     20 C          -3.2604   -1.2961   -0.8572 C.ar    1  LIG1       -0.0488
     21 C          -2.2758    0.7062    0.0349 C.ar    1  LIG1       -0.0488
     22 C           2.8487   -3.0369   -1.5811 C.ar    1  LIG1       -0.0417
     23 C           1.8128   -2.8104   -2.4607 C.ar    1  LIG1        0.0284
     24 C           4.0205    0.6390    2.3565 C.ar    1  LIG1        0.2574
     25 C          -4.7385    0.5985   -0.1858 C.ar    1  LIG1        0.2480
     26 C           5.4059    1.0633    0.5743 C.ar    1  LIG1        0.0602
     27 C           4.3134    0.9477   -0.2832 C.ar    1  LIG1        0.0510
     28 C           6.7697    1.3556    0.0313 C.3     1  LIG1       -0.0208
     29 C           4.9738    0.4369    4.4804 C.3     1  LIG1        0.0805
     30 C          -6.8187    0.8263   -0.5146 C.ar    1  LIG1        0.2047
     31 H           1.4703    0.4293    2.8791 H       1  LIG1        0.1754
     32 H           3.4880   -2.7878    0.4447 H       1  LIG1        0.0638
     33 H          -1.8893   -2.8543   -1.4117 H       1  LIG1        0.0624
     34 H          -0.1349    0.7700    0.1205 H       1  LIG1        0.0624
     35 H          -4.1207   -1.8837   -1.1696 H       1  LIG1        0.0625
     36 H          -2.3670    1.7148    0.4361 H       1  LIG1        0.0625
     37 H           3.7520   -3.5442   -1.9004 H       1  LIG1        0.0633
     38 H           1.8737   -3.1283   -3.4975 H       1  LIG1        0.0830
     39 H           4.4187    1.0681   -1.3572 H       1  LIG1        0.0848
     40 H           7.5106    1.3886    0.8365 H       1  LIG1        0.0293
     41 H           6.7751    2.3236   -0.4786 H       1  LIG1        0.0293
     42 H           7.0705    0.5755   -0.6752 H       1  LIG1        0.0293
     43 H           4.6906    0.2600    5.5223 H       1  LIG1        0.0660
     44 H           5.5182    1.3869    4.4404 H       1  LIG1        0.0660
     45 H           5.6116   -0.3956    4.1626 H       1  LIG1        0.0660
     46 H          -7.7933    0.5862   -0.9112 H       1  LIG1        0.1272
@<TRIPOS>BOND
     1     1     2    2
     2     1     3    2
     3     1     6    1
     4     1    12    1
     5     4    24    1
     6     4    29    1
     7     5    25   ar
     8     5    30   ar
     9     6    18    1
    10     7    13   ar
    11     7    23   ar
    12     8    18   ar
    13     8    27   ar
    14     9    24   ar
    15     9    26   ar
    16    10    11   ar
    17    10    25   ar
    18    11    30   ar
    19    12    13   ar
    20    12    15   ar
    21    13    14    1
    22    14    16   ar
    23    14    17   ar
    24    15    22   ar
    25    16    20   ar
    26    17    21   ar
    27    18    24   ar
    28    19    20   ar
    29    19    21   ar
    30    19    25    1
    31    22    23   ar
    32    26    27   ar
    33    26    28    1
    34     6    31    1
    35    15    32    1
    36    16    33    1
    37    17    34    1
    38    20    35    1
    39    21    36    1
    40    22    37    1
    41    23    38    1
    42    27    39    1
    43    28    40    1
    44    28    41    1
    45    28    42    1
    46    29    43    1
    47    29    44    1
    48    29    45    1
    49    30    46    1
@<TRIPOS>MOLECULE
9910224
 46 49 0 0 0
SMALL
GASTEIGER

@<TRIPOS>ATOM
      1 S           1.3396   -1.4849    1.8067 S.O2    1  LIG1        0.0756
      2 O           2.3816   -2.1776    2.5397 O.2     1  LIG1       -0.1499
      3 O          -0.0330   -1.6477    2.2322 O.2     1  LIG1       -0.1499
      4 O           2.2634    0.8212   -0.8593 O.3     1  LIG1       -0.4773
      5 O          -5.8473   -0.0626   -0.7869 O.2     1  LIG1       -0.4229
      6 N           1.6930    0.1738    1.8722 N.pl3   1  LIG1       -0.1951
      7 N           0.6039   -2.2698   -2.0973 N.ar    1  LIG1       -0.2530
      8 N           3.9139    0.5599    2.3732 N.ar    1  LIG1       -0.2325
      9 N           4.5572    1.0530   -0.3535 N.ar    1  LIG1       -0.2137
     10 N          -5.1298    1.7155    0.3650 N.ar    1  LIG1       -0.1076
     11 N          -6.4914    1.8492    0.1777 N.ar    1  LIG1       -0.1156
     12 C           1.4788   -1.9623    0.1138 C.ar    1  LIG1        0.1344
     13 C           0.4511   -1.8132   -0.8148 C.ar    1  LIG1        0.0975
     14 C          -0.8730   -1.1943   -0.6075 C.ar    1  LIG1        0.0023
     15 C           2.6624   -2.6148   -0.2773 C.ar    1  LIG1       -0.0315
     16 C          -1.0429    0.1133   -0.1307 C.ar    1  LIG1       -0.0518
     17 C          -2.0341   -1.9007   -0.9716 C.ar    1  LIG1       -0.0518
     18 C           2.9856    0.5364    1.3990 C.ar    1  LIG1        0.2006
     19 C          -3.4683   -0.0395   -0.3446 C.ar    1  LIG1        0.0385
     20 C          -2.3194    0.6748    0.0168 C.ar    1  LIG1       -0.0488
     21 C          -3.3096   -1.3358   -0.8460 C.ar    1  LIG1       -0.0488
     22 C           2.8091   -3.0717   -1.5796 C.ar    1  LIG1       -0.0417
     23 C           1.7580   -2.8764   -2.4485 C.ar    1  LIG1        0.0284
     24 C           3.2927    0.7926    0.0563 C.ar    1  LIG1        0.2574
     25 C          -4.7793    0.5807   -0.2099 C.ar    1  LIG1        0.2480
     26 C           5.5022    1.0604    0.6192 C.ar    1  LIG1        0.0602
     27 C           5.1753    0.8240    1.9535 C.ar    1  LIG1        0.0510
     28 C           6.9172    1.3347    0.2163 C.3     1  LIG1       -0.0208
     29 C           2.6953    0.9970   -2.2036 C.3     1  LIG1        0.0805
     30 C          -6.8661    0.7931   -0.5027 C.ar    1  LIG1        0.2047
     31 H           1.6565    0.4299    2.8600 H       1  LIG1        0.1754
     32 H           3.4740   -2.7740    0.4309 H       1  LIG1        0.0638
     33 H          -0.1861    0.7303    0.1226 H       1  LIG1        0.0624
     34 H          -1.9445   -2.9076   -1.3780 H       1  LIG1        0.0624
     35 H          -2.4060    1.6888    0.4051 H       1  LIG1        0.0625
     36 H          -4.1720   -1.9250   -1.1500 H       1  LIG1        0.0625
     37 H           3.7148   -3.5733   -1.9016 H       1  LIG1        0.0633
     38 H           1.8090   -3.2141   -3.4797 H       1  LIG1        0.0830
     39 H           5.9315    0.8346    2.7327 H       1  LIG1        0.0848
     40 H           6.9908    1.4837   -0.8660 H       1  LIG1        0.0293
     41 H           7.5584    0.4903    0.4871 H       1  LIG1        0.0293
     42 H           7.2837    2.2394    0.7107 H       1  LIG1        0.0293
     43 H           1.8099    0.9543   -2.8454 H       1  LIG1        0.0660
     44 H           3.3704    0.1920   -2.5138 H       1  LIG1        0.0660
     45 H           3.1623    1.9778   -2.3433 H       1  LIG1        0.0660
     46 H          -7.8508    0.5292   -0.8564 H       1  LIG1        0.1272
@<TRIPOS>BOND
     1     1     2    2
     2     1     3    2
     3     1     6    1
     4     1    12    1
     5     4    24    1
     6     4    29    1
     7     5    25   ar
     8     5    30   ar
     9     6    18    1
    10     7    13   ar
    11     7    23   ar
    12     8    18   ar
    13     8    27   ar
    14     9    24   ar
    15     9    26   ar
    16    10    11   ar
    17    10    25   ar
    18    11    30   ar
    19    12    13   ar
    20    12    15   ar
    21    13    14    1
    22    14    16   ar
    23    14    17   ar
    24    15    22   ar
    25    16    20   ar
    26    17    21   ar
    27    18    24   ar
    28    19    20   ar
    29    19    21   ar
    30    19    25    1
    31    22    23   ar
    32    26    27   ar
    33    26    28    1
    34     6    31    1
    35    15    32    1
    36    16    33    1
    37    17    34    1
    38    20    35    1
    39    21    36    1
    40    22    37    1
    41    23    38    1
    42    27    39    1
    43    28    40    1
    44    28    41    1
    45    28    42    1
    46    29    43    1
    47    29    44    1
    48    29    45    1
    49    30    46    1
@<TRIPOS>MOLECULE
9910224
 46 49 0 0 0
SMALL
GASTEIGER

@<TRIPOS>ATOM
      1 S           1.3010   -1.5392    1.8621 S.O2    1  LIG1        0.0756
      2 O           2.3268   -2.2177    2.6307 O.2     1  LIG1       -0.1499
      3 O          -0.0897   -1.7654    2.1913 O.2     1  LIG1       -0.1499
      4 O           2.6604    0.8735    4.4319 O.3     1  LIG1       -0.4773
      5 O          -5.8031   -0.3237   -0.3748 O.2     1  LIG1       -0.4229
      6 N           1.5573    0.1219    1.9727 N.pl3   1  LIG1       -0.1951
      7 N           0.7615   -2.1150   -2.1087 N.ar    1  LIG1       -0.2530
      8 N           3.6420    0.4081    0.9587 N.ar    1  LIG1       -0.2325
      9 N           4.8128    1.1050    3.4612 N.ar    1  LIG1       -0.2137
     10 N          -5.0930    1.6736    0.3398 N.ar    1  LIG1       -0.1076
     11 N          -6.4739    1.6868    0.3375 N.ar    1  LIG1       -0.1156
     12 C           1.5480   -1.9052    0.1521 C.ar    1  LIG1        0.1344
     13 C           0.5612   -1.7236   -0.8137 C.ar    1  LIG1        0.0975
     14 C          -0.7766   -1.1463   -0.6100 C.ar    1  LIG1        0.0023
     15 C           2.7577   -2.5108   -0.2217 C.ar    1  LIG1       -0.0315
     16 C          -0.9696    0.1863   -0.2186 C.ar    1  LIG1       -0.0518
     17 C          -1.9187   -1.9243   -0.8668 C.ar    1  LIG1       -0.0518
     18 C           2.9220    0.4904    2.0948 C.ar    1  LIG1        0.2006
     19 C          -3.3955   -0.0843   -0.2759 C.ar    1  LIG1        0.0385
     20 C          -2.2602    0.7051   -0.0407 C.ar    1  LIG1       -0.0488
     21 C          -3.2076   -1.4046   -0.7018 C.ar    1  LIG1       -0.0488
     22 C           2.9628   -2.8976   -1.5397 C.ar    1  LIG1       -0.0417
     23 C           1.9414   -2.6804   -2.4408 C.ar    1  LIG1        0.0284
     24 C           3.4953    0.8170    3.3306 C.ar    1  LIG1        0.2574
     25 C          -4.7263    0.4785   -0.0826 C.ar    1  LIG1        0.2480
     26 C           5.5442    1.0293    2.3212 C.ar    1  LIG1        0.0602
     27 C           4.9603    0.6898    1.1007 C.ar    1  LIG1        0.0510
     28 C           7.0099    1.3202    2.4083 C.3     1  LIG1       -0.0208
     29 C           3.3695    1.0707    5.6514 C.3     1  LIG1        0.0805
     30 C          -6.8444    0.5027   -0.0863 C.ar    1  LIG1        0.2047
     31 H           0.9569    0.5010    2.7054 H       1  LIG1        0.1754
     32 H           3.5426   -2.6826    0.5119 H       1  LIG1        0.0638
     33 H          -0.1158    0.8412   -0.0588 H       1  LIG1        0.0624
     34 H          -1.8034   -2.9523   -1.2078 H       1  LIG1        0.0624
     35 H          -2.3730    1.7406    0.2778 H       1  LIG1        0.0625
     36 H          -4.0583   -2.0490   -0.9125 H       1  LIG1        0.0625
     37 H           3.8908   -3.3636   -1.8505 H       1  LIG1        0.0633
     38 H           2.0402   -2.9668   -3.4838 H       1  LIG1        0.0830
     39 H           5.5481    0.6305    0.1898 H       1  LIG1        0.0848
     40 H           7.3019    1.5442    3.4393 H       1  LIG1        0.0293
     41 H           7.2622    2.1847    1.7866 H       1  LIG1        0.0293
     42 H           7.5888    0.4544    2.0720 H       1  LIG1        0.0293
     43 H           2.6399    1.0567    6.4667 H       1  LIG1        0.0660
     44 H           3.8668    2.0467    5.6673 H       1  LIG1        0.0660
     45 H           4.0852    0.2608    5.8310 H       1  LIG1        0.0660
     46 H          -7.8414    0.1150   -0.2297 H       1  LIG1        0.1272
@<TRIPOS>BOND
     1     1     2    2
     2     1     3    2
     3     1     6    1
     4     1    12    1
     5     4    24    1
     6     4    29    1
     7     5    25   ar
     8     5    30   ar
     9     6    18    1
    10     7    13   ar
    11     7    23   ar
    12     8    18   ar
    13     8    27   ar
    14     9    24   ar
    15     9    26   ar
    16    10    11   ar
    17    10    25   ar
    18    11    30   ar
    19    12    13   ar
    20    12    15   ar
    21    13    14    1
    22    14    16   ar
    23    14    17   ar
    24    15    22   ar
    25    16    20   ar
    26    17    21   ar
    27    18    24   ar
    28    19    20   ar
    29    19    21   ar
    30    19    25    1
    31    22    23   ar
    32    26    27   ar
    33    26    28    1
    34     6    31    1
    35    15    32    1
    36    16    33    1
    37    17    34    1
    38    20    35    1
    39    21    36    1
    40    22    37    1
    41    23    38    1
    42    27    39    1
    43    28    40    1
    44    28    41    1
    45    28    42    1
    46    29    43    1
    47    29    44    1
    48    29    45    1
    49    30    46    1
@<TRIPOS>MOLECULE
9910224
 46 49 0 0 0
SMALL
GASTEIGER

@<TRIPOS>ATOM
      1 S           1.3389   -1.4757    1.8020 S.O2    1  LIG1        0.0756
      2 O           2.3788   -2.1696    2.5371 O.2     1  LIG1       -0.1499
      3 O          -0.0343   -1.6360    2.2255 O.2     1  LIG1       -0.1499
      4 O           2.2570    0.8457   -0.8570 O.3     1  LIG1       -0.4773
      5 O          -4.9907    1.4610    0.7772 O.2     1  LIG1       -0.4229
      6 N           1.6944    0.1836    1.8738 N.pl3   1  LIG1       -0.1951
      7 N           0.6230   -2.2429   -2.1110 N.ar    1  LIG1       -0.2530
      8 N           3.9175    0.5607    2.3683 N.ar    1  LIG1       -0.2325
      9 N           4.5539    1.0639   -0.3573 N.ar    1  LIG1       -0.2137
     10 N          -5.9987   -0.0853   -0.4874 N.ar    1  LIG1       -0.1076
     11 N          -6.9743    0.7316    0.0459 N.ar    1  LIG1       -0.1156
     12 C           1.4847   -1.9483    0.1077 C.ar    1  LIG1        0.1344
     13 C           0.4616   -1.7964   -0.8263 C.ar    1  LIG1        0.0975
     14 C          -0.8724   -1.2021   -0.6130 C.ar    1  LIG1        0.0023
     15 C           2.6705   -2.5991   -0.2807 C.ar    1  LIG1       -0.0315
     16 C          -1.0678    0.0930   -0.1116 C.ar    1  LIG1       -0.0518
     17 C          -2.0200   -1.9303   -0.9770 C.ar    1  LIG1       -0.0518
     18 C           2.9863    0.5449    1.3967 C.ar    1  LIG1        0.2006
     19 C          -3.4924   -0.1362   -0.2501 C.ar    1  LIG1        0.0385
     20 C          -2.3562    0.6119    0.0863 C.ar    1  LIG1       -0.0488
     21 C          -3.3064   -1.4067   -0.8039 C.ar    1  LIG1       -0.0488
     22 C           2.8237   -3.0508   -1.5836 C.ar    1  LIG1       -0.0417
     23 C           1.7786   -2.8490   -2.4582 C.ar    1  LIG1        0.0284
     24 C           3.2897    0.8064    0.0545 C.ar    1  LIG1        0.2574
     25 C          -4.8406    0.3680   -0.0408 C.ar    1  LIG1        0.2480
     26 C           5.5026    1.0611    0.6118 C.ar    1  LIG1        0.0602
     27 C           5.1789    0.8202    1.9458 C.ar    1  LIG1        0.0510
     28 C           6.9180    1.3297    0.2061 C.3     1  LIG1       -0.0208
     29 C           2.6881    1.0033   -2.2041 C.3     1  LIG1        0.0805
     30 C          -6.3436    1.6125    0.7839 C.ar    1  LIG1        0.2047
     31 H           1.6714    0.4283    2.8648 H       1  LIG1        0.1754
     32 H           3.4776   -2.7628    0.4316 H       1  LIG1        0.0638
     33 H          -0.2206    0.7266    0.1347 H       1  LIG1        0.0624
     34 H          -1.9129   -2.9247   -1.4080 H       1  LIG1        0.0624
     35 H          -2.4568    1.6119    0.5021 H       1  LIG1        0.0625
     36 H          -4.1648   -2.0101   -1.0982 H       1  LIG1        0.0625
     37 H           3.7298   -3.5534   -1.9021 H       1  LIG1        0.0633
     38 H           1.8349   -3.1827   -3.4906 H       1  LIG1        0.0830
     39 H           5.9376    0.8228    2.7225 H       1  LIG1        0.0848
     40 H           6.9900    1.4783   -0.8764 H       1  LIG1        0.0293
     41 H           7.5563    0.4830    0.4756 H       1  LIG1        0.0293
     42 H           7.2889    2.2330    0.6997 H       1  LIG1        0.0293
     43 H           1.8012    0.9609   -2.8441 H       1  LIG1        0.0660
     44 H           3.3564    0.1902   -2.5070 H       1  LIG1        0.0660
     45 H           3.1626    1.9788   -2.3547 H       1  LIG1        0.0660
     46 H          -6.7506    2.4146    1.3782 H       1  LIG1        0.1272
@<TRIPOS>BOND
     1     1     2    2
     2     1     3    2
     3     1     6    1
     4     1    12    1
     5     4    24    1
     6     4    29    1
     7     5    25   ar
     8     5    30   ar
     9     6    18    1
    10     7    13   ar
    11     7    23   ar
    12     8    18   ar
    13     8    27   ar
    14     9    24   ar
    15     9    26   ar
    16    10    11   ar
    17    10    25   ar
    18    11    30   ar
    19    12    13   ar
    20    12    15   ar
    21    13    14    1
    22    14    16   ar
    23    14    17   ar
    24    15    22   ar
    25    16    20   ar
    26    17    21   ar
    27    18    24   ar
    28    19    20   ar
    29    19    21   ar
    30    19    25    1
    31    22    23   ar
    32    26    27   ar
    33    26    28    1
    34     6    31    1
    35    15    32    1
    36    16    33    1
    37    17    34    1
    38    20    35    1
    39    21    36    1
    40    22    37    1
    41    23    38    1
    42    27    39    1
    43    28    40    1
    44    28    41    1
    45    28    42    1
    46    29    43    1
    47    29    44    1
    48    29    45    1
    49    30    46    1
@<TRIPOS>MOLECULE
9910224
 46 49 0 0 0
SMALL
GASTEIGER

@<TRIPOS>ATOM
      1 S           1.2658   -1.4530    1.9146 S.O2    1  LIG1        0.0756
      2 O           2.2336   -2.2152    2.6789 O.2     1  LIG1       -0.1499
      3 O          -0.1417   -1.5576    2.2390 O.2     1  LIG1       -0.1499
      4 O           3.9579    0.2465    3.7314 O.3     1  LIG1       -0.4773
      5 O          -5.8677   -0.3300   -0.4355 O.2     1  LIG1       -0.4229
      6 N           1.6787    0.1718    2.0261 N.pl3   1  LIG1       -0.1951
      7 N           0.7238   -2.1763   -2.0515 N.ar    1  LIG1       -0.2530
      8 N           3.0103    0.8142    0.2589 N.ar    1  LIG1       -0.2325
      9 N           5.3458    0.7513    1.8827 N.ar    1  LIG1       -0.2137
     10 N          -5.1705    1.6320    0.3816 N.ar    1  LIG1       -0.1076
     11 N          -6.5515    1.6292    0.3971 N.ar    1  LIG1       -0.1156
     12 C           1.4913   -1.8892    0.2076 C.ar    1  LIG1        0.1344
     13 C           0.5144   -1.7254   -0.7757 C.ar    1  LIG1        0.0975
     14 C          -0.8277   -1.1311   -0.6241 C.ar    1  LIG1        0.0023
     15 C           2.6861   -2.5511   -0.1313 C.ar    1  LIG1       -0.0315
     16 C          -1.9642   -1.8727   -0.9964 C.ar    1  LIG1       -0.0518
     17 C          -1.0374    0.1814   -0.1822 C.ar    1  LIG1       -0.0518
     18 C           2.9708    0.5162    1.5739 C.ar    1  LIG1        0.2006
     19 C          -3.4612   -0.0768   -0.3281 C.ar    1  LIG1        0.0385
     20 C          -3.2585   -1.3553   -0.8582 C.ar    1  LIG1       -0.0488
     21 C          -2.3332    0.6896   -0.0050 C.ar    1  LIG1       -0.0488
     22 C           2.8897   -3.0071   -1.4270 C.ar    1  LIG1       -0.0417
     23 C           1.8856   -2.7967   -2.3468 C.ar    1  LIG1        0.0284
     24 C           4.1123    0.4883    2.3825 C.ar    1  LIG1        0.2574
     25 C          -4.7959    0.4663   -0.1107 C.ar    1  LIG1        0.2480
     26 C           5.4016    1.0357    0.5576 C.ar    1  LIG1        0.0602
     27 C           4.2510    1.0649   -0.2287 C.ar    1  LIG1        0.0510
     28 C           6.7461    1.3061   -0.0429 C.3     1  LIG1       -0.0208
     29 C           5.1663    0.3710    4.4710 C.3     1  LIG1        0.0805
     30 C          -6.9147    0.4658   -0.0859 C.ar    1  LIG1        0.2047
     31 H           0.9428    0.7963    1.7238 H       1  LIG1        0.1754
     32 H           3.4578   -2.7270    0.6161 H       1  LIG1        0.0638
     33 H          -1.8414   -2.8728   -1.4107 H       1  LIG1        0.0624
     34 H          -0.1961    0.8368    0.0133 H       1  LIG1        0.0624
     35 H          -4.1012   -1.9723   -1.1639 H       1  LIG1        0.0625
     36 H          -2.4565    1.6984    0.3874 H       1  LIG1        0.0625
     37 H           3.8005   -3.5262   -1.7039 H       1  LIG1        0.0633
     38 H           1.9807   -3.1382   -3.3738 H       1  LIG1        0.0830
     39 H           4.2980    1.2863   -1.2911 H       1  LIG1        0.0848
     40 H           7.5225    1.3146    0.7292 H       1  LIG1        0.0293
     41 H           6.7528    2.2808   -0.5404 H       1  LIG1        0.0293
     42 H           6.9977    0.5288   -0.7710 H       1  LIG1        0.0293
     43 H           4.9291    0.2077    5.5265 H       1  LIG1        0.0660
     44 H           5.5884    1.3784    4.3802 H       1  LIG1        0.0660
     45 H           5.8944   -0.3891    4.1689 H       1  LIG1        0.0660
     46 H          -7.9092    0.0744   -0.2354 H       1  LIG1        0.1272
@<TRIPOS>BOND
     1     1     2    2
     2     1     3    2
     3     1     6    1
     4     1    12    1
     5     4    24    1
     6     4    29    1
     7     5    25   ar
     8     5    30   ar
     9     6    18    1
    10     7    13   ar
    11     7    23   ar
    12     8    18   ar
    13     8    27   ar
    14     9    24   ar
    15     9    26   ar
    16    10    11   ar
    17    10    25   ar
    18    11    30   ar
    19    12    13   ar
    20    12    15   ar
    21    13    14    1
    22    14    16   ar
    23    14    17   ar
    24    15    22   ar
    25    16    20   ar
    26    17    21   ar
    27    18    24   ar
    28    19    20   ar
    29    19    21   ar
    30    19    25    1
    31    22    23   ar
    32    26    27   ar
    33    26    28    1
    34     6    31    1
    35    15    32    1
    36    16    33    1
    37    17    34    1
    38    20    35    1
    39    21    36    1
    40    22    37    1
    41    23    38    1
    42    27    39    1
    43    28    40    1
    44    28    41    1
    45    28    42    1
    46    29    43    1
    47    29    44    1
    48    29    45    1
    49    30    46    1
@<TRIPOS>MOLECULE
9910224
 46 49 0 0 0
SMALL
GASTEIGER

@<TRIPOS>ATOM
      1 S           1.3216   -1.4600    1.7921 S.O2    1  LIG1        0.0756
      2 O           2.3678   -2.1321    2.5349 O.2     1  LIG1       -0.1499
      3 O          -0.0514   -1.6301    2.2153 O.2     1  LIG1       -0.1499
      4 O           2.2699    0.8198   -0.8954 O.3     1  LIG1       -0.4773
      5 O          -5.9033   -0.3331   -0.3636 O.2     1  LIG1       -0.4229
      6 N           1.6552    0.2037    1.8311 N.pl3   1  LIG1       -0.1951
      7 N           0.5958   -2.2918   -2.1032 N.ar    1  LIG1       -0.2530
      8 N           3.8670    0.6009    2.3667 N.ar    1  LIG1       -0.2325
      9 N           4.5562    1.0550   -0.3555 N.ar    1  LIG1       -0.2137
     10 N          -5.1604    1.6675    0.3065 N.ar    1  LIG1       -0.1076
     11 N          -6.5410    1.7025    0.3072 N.ar    1  LIG1       -0.1156
     12 C           1.4711   -1.9573    0.1055 C.ar    1  LIG1        0.1344
     13 C           0.4434   -1.8270   -0.8247 C.ar    1  LIG1        0.0975
     14 C          -0.8854   -1.2280   -0.6089 C.ar    1  LIG1        0.0023
     15 C           2.6603   -2.6021   -0.2788 C.ar    1  LIG1       -0.0315
     16 C          -1.0648    0.1069   -0.2194 C.ar    1  LIG1       -0.0518
     17 C          -2.0401   -1.9904   -0.8587 C.ar    1  LIG1       -0.0518
     18 C           2.9546    0.5671    1.3779 C.ar    1  LIG1        0.2006
     19 C          -3.4927   -0.1283   -0.2768 C.ar    1  LIG1        0.0385
     20 C          -2.3475    0.6446   -0.0436 C.ar    1  LIG1       -0.0488
     21 C          -3.3222   -1.4529   -0.6952 C.ar    1  LIG1       -0.0488
     22 C           2.8096   -3.0678   -1.5781 C.ar    1  LIG1       -0.0417
     23 C           1.7566   -2.8893   -2.4489 C.ar    1  LIG1        0.0284
     24 C           3.2843    0.8046    0.0373 C.ar    1  LIG1        0.2574
     25 C          -4.8136    0.4577   -0.0905 C.ar    1  LIG1        0.2480
     26 C           5.4855    1.0707    0.6322 C.ar    1  LIG1        0.0602
     27 C           5.1363    0.8532    1.9640 C.ar    1  LIG1        0.0510
     28 C           6.9085    1.3299    0.2484 C.3     1  LIG1       -0.0208
     29 C           2.7219    0.9946   -2.2331 C.3     1  LIG1        0.0805
     30 C          -6.9308    0.5154   -0.0900 C.ar    1  LIG1        0.2047
     31 H           1.5888    0.4823    2.8111 H       1  LIG1        0.1754
     32 H           3.4728   -2.7474    0.4310 H       1  LIG1        0.0638
     33 H          -0.2106    0.7572   -0.0535 H       1  LIG1        0.0624
     34 H          -1.9405   -3.0215   -1.1960 H       1  LIG1        0.0624
     35 H          -2.4439    1.6819    0.2748 H       1  LIG1        0.0625
     36 H          -4.1818   -2.0867   -0.9027 H       1  LIG1        0.0625
     37 H           3.7203   -3.5638   -1.8962 H       1  LIG1        0.0633
     38 H           1.8113   -3.2350   -3.4771 H       1  LIG1        0.0830
     39 H           5.8801    0.8685    2.7549 H       1  LIG1        0.0848
     40 H           6.9986    1.4754   -0.8331 H       1  LIG1        0.0293
     41 H           7.5373    0.4798    0.5302 H       1  LIG1        0.0293
     42 H           7.2773    2.2321    0.7455 H       1  LIG1        0.0293
     43 H           1.8461    0.9505   -2.8879 H       1  LIG1        0.0660
     44 H           3.4019    0.1895   -2.5318 H       1  LIG1        0.0660
     45 H           3.1901    1.9755   -2.3670 H       1  LIG1        0.0660
     46 H          -7.9341    0.1408   -0.2231 H       1  LIG1        0.1272
@<TRIPOS>BOND
     1     1     2    2
     2     1     3    2
     3     1     6    1
     4     1    12    1
     5     4    24    1
     6     4    29    1
     7     5    25   ar
     8     5    30   ar
     9     6    18    1
    10     7    13   ar
    11     7    23   ar
    12     8    18   ar
    13     8    27   ar
    14     9    24   ar
    15     9    26   ar
    16    10    11   ar
    17    10    25   ar
    18    11    30   ar
    19    12    13   ar
    20    12    15   ar
    21    13    14    1
    22    14    16   ar
    23    14    17   ar
    24    15    22   ar
    25    16    20   ar
    26    17    21   ar
    27    18    24   ar
    28    19    20   ar
    29    19    21   ar
    30    19    25    1
    31    22    23   ar
    32    26    27   ar
    33    26    28    1
    34     6    31    1
    35    15    32    1
    36    16    33    1
    37    17    34    1
    38    20    35    1
    39    21    36    1
    40    22    37    1
    41    23    38    1
    42    27    39    1
    43    28    40    1
    44    28    41    1
    45    28    42    1
    46    29    43    1
    47    29    44    1
    48    29    45    1
    49    30    46    1
@<TRIPOS>MOLECULE
9910224
 46 49 0 0 0
SMALL
GASTEIGER

@<TRIPOS>ATOM
      1 S           1.2807   -1.5483    1.8656 S.O2    1  LIG1        0.0756
      2 O           2.3009   -2.2381    2.6314 O.2     1  LIG1       -0.1499
      3 O          -0.1114   -1.7631    2.1934 O.2     1  LIG1       -0.1499
      4 O           2.6679    0.8637    4.4414 O.3     1  LIG1       -0.4773
      5 O          -4.8929    1.6514    0.6123 O.2     1  LIG1       -0.4229
      6 N           1.5500    0.1100    1.9919 N.pl3   1  LIG1       -0.1951
      7 N           0.7481   -2.0856   -2.1125 N.ar    1  LIG1       -0.2530
      8 N           3.6300    0.3864    0.9646 N.ar    1  LIG1       -0.2325
      9 N           4.8153    1.0899    3.4586 N.ar    1  LIG1       -0.2137
     10 N          -5.9151   -0.0451   -0.4276 N.ar    1  LIG1       -0.1076
     11 N          -6.8871    0.8220    0.0297 N.ar    1  LIG1       -0.1156
     12 C           1.5256   -1.9041    0.1526 C.ar    1  LIG1        0.1344
     13 C           0.5452   -1.7019   -0.8152 C.ar    1  LIG1        0.0975
     14 C          -0.7893   -1.1154   -0.6135 C.ar    1  LIG1        0.0023
     15 C           2.7289   -2.5241   -0.2205 C.ar    1  LIG1       -0.0315
     16 C          -0.9763    0.2040   -0.1760 C.ar    1  LIG1       -0.0518
     17 C          -1.9354   -1.8692   -0.9187 C.ar    1  LIG1       -0.0518
     18 C           2.9176    0.4700    2.1052 C.ar    1  LIG1        0.2006
     19 C          -3.4023   -0.0423   -0.2661 C.ar    1  LIG1        0.0385
     20 C          -2.2642    0.7281    0.0116 C.ar    1  LIG1       -0.0488
     21 C          -3.2205   -1.3432   -0.7503 C.ar    1  LIG1       -0.0488
     22 C           2.9340   -2.9060   -1.5401 C.ar    1  LIG1       -0.0417
     23 C           1.9209   -2.6666   -2.4438 C.ar    1  LIG1        0.0284
     24 C           3.4977    0.8003    3.3363 C.ar    1  LIG1        0.2574
     25 C          -4.7527    0.4685   -0.0716 C.ar    1  LIG1        0.2480
     26 C           5.5400    1.0109    2.3144 C.ar    1  LIG1        0.0602
     27 C           4.9491    0.6679    1.0982 C.ar    1  LIG1        0.0510
     28 C           7.0060    1.3045    2.3917 C.3     1  LIG1       -0.0208
     29 C           3.3837    1.0613    5.6570 C.3     1  LIG1        0.0805
     30 C          -6.2467    1.7926    0.6352 C.ar    1  LIG1        0.2047
     31 H           0.9611    0.4816    2.7376 H       1  LIG1        0.1754
     32 H           3.5087   -2.7138    0.5153 H       1  LIG1        0.0638
     33 H          -0.1186    0.8446    0.0151 H       1  LIG1        0.0624
     34 H          -1.8278   -2.8848   -1.2992 H       1  LIG1        0.0624
     35 H          -2.3643    1.7508    0.3693 H       1  LIG1        0.0625
     36 H          -4.0809   -1.9640   -0.9966 H       1  LIG1        0.0625
     37 H           3.8564   -3.3849   -1.8498 H       1  LIG1        0.0633
     38 H           2.0190   -2.9480   -3.4882 H       1  LIG1        0.0830
     39 H           5.5318    0.6062    0.1841 H       1  LIG1        0.0848
     40 H           7.3043    1.5292    3.4210 H       1  LIG1        0.0293
     41 H           7.2525    2.1696    1.7683 H       1  LIG1        0.0293
     42 H           7.5844    0.4396    2.0517 H       1  LIG1        0.0293
     43 H           2.6580    1.0506    6.4759 H       1  LIG1        0.0660
     44 H           3.8831    2.0364    5.6686 H       1  LIG1        0.0660
     45 H           4.0985    0.2502    5.8345 H       1  LIG1        0.0660
     46 H          -6.6487    2.6596    1.1353 H       1  LIG1        0.1272
@<TRIPOS>BOND
     1     1     2    2
     2     1     3    2
     3     1     6    1
     4     1    12    1
     5     4    24    1
     6     4    29    1
     7     5    25   ar
     8     5    30   ar
     9     6    18    1
    10     7    13   ar
    11     7    23   ar
    12     8    18   ar
    13     8    27   ar
    14     9    24   ar
    15     9    26   ar
    16    10    11   ar
    17    10    25   ar
    18    11    30   ar
    19    12    13   ar
    20    12    15   ar
    21    13    14    1
    22    14    16   ar
    23    14    17   ar
    24    15    22   ar
    25    16    20   ar
    26    17    21   ar
    27    18    24   ar
    28    19    20   ar
    29    19    21   ar
    30    19    25    1
    31    22    23   ar
    32    26    27   ar
    33    26    28    1
    34     6    31    1
    35    15    32    1
    36    16    33    1
    37    17    34    1
    38    20    35    1
    39    21    36    1
    40    22    37    1
    41    23    38    1
    42    27    39    1
    43    28    40    1
    44    28    41    1
    45    28    42    1
    46    29    43    1
    47    29    44    1
    48    29    45    1
    49    30    46    1
@<TRIPOS>MOLECULE
9910224
 46 49 0 0 0
SMALL
GASTEIGER

@<TRIPOS>ATOM
      1 S           1.3012   -1.5599    1.8712 S.O2    1  LIG1        0.0756
      2 O           2.3267   -2.2458    2.6337 O.2     1  LIG1       -0.1499
      3 O          -0.0900   -1.7850    2.1981 O.2     1  LIG1       -0.1499
      4 O           2.6770    0.8584    4.4477 O.3     1  LIG1       -0.4773
      5 O          -5.7915   -0.2190   -0.5925 O.2     1  LIG1       -0.4229
      6 N           1.5619    0.1001    1.9971 N.pl3   1  LIG1       -0.1951
      7 N           0.7624   -2.1065   -2.1050 N.ar    1  LIG1       -0.2530
      8 N           3.6403    0.3874    0.9702 N.ar    1  LIG1       -0.2325
      9 N           4.8230    1.0955    3.4643 N.ar    1  LIG1       -0.2137
     10 N          -5.0905    1.6805    0.3586 N.ar    1  LIG1       -0.1076
     11 N          -6.4666    1.7348    0.2589 N.ar    1  LIG1       -0.1156
     12 C           1.5465   -1.9119    0.1575 C.ar    1  LIG1        0.1344
     13 C           0.5609   -1.7211   -0.8070 C.ar    1  LIG1        0.0975
     14 C          -0.7764   -1.1382   -0.6072 C.ar    1  LIG1        0.0023
     15 C           2.7549   -2.5196   -0.2194 C.ar    1  LIG1       -0.0315
     16 C          -0.9669    0.1825   -0.1789 C.ar    1  LIG1       -0.0518
     17 C          -1.9200   -1.8954   -0.9147 C.ar    1  LIG1       -0.0518
     18 C           2.9275    0.4682    2.1112 C.ar    1  LIG1        0.2006
     19 C          -3.3926   -0.0570   -0.3107 C.ar    1  LIG1        0.0385
     20 C          -2.2562    0.7095   -0.0167 C.ar    1  LIG1       -0.0488
     21 C          -3.2074   -1.3661   -0.7700 C.ar    1  LIG1       -0.0488
     22 C           2.9606   -2.8994   -1.5391 C.ar    1  LIG1       -0.0417
     23 C           1.9409   -2.6738   -2.4396 C.ar    1  LIG1        0.0284
     24 C           3.5059    0.8009    3.3418 C.ar    1  LIG1        0.2574
     25 C          -4.7207    0.5189   -0.1478 C.ar    1  LIG1        0.2480
     26 C           5.5477    1.0212    2.3204 C.ar    1  LIG1        0.0602
     27 C           4.9583    0.6760    1.1039 C.ar    1  LIG1        0.0510
     28 C           7.0129    1.3205    2.3975 C.3     1  LIG1       -0.0208
     29 C           3.3913    1.0700    5.6621 C.3     1  LIG1        0.0805
     30 C          -6.8324    0.6090   -0.3041 C.ar    1  LIG1        0.2047
     31 H           0.9675    0.4731    2.7383 H       1  LIG1        0.1754
     32 H           3.5388   -2.6984    0.5137 H       1  LIG1        0.0638
     33 H          -0.1118    0.8258    0.0192 H       1  LIG1        0.0624
     34 H          -1.8069   -2.9142   -1.2852 H       1  LIG1        0.0624
     35 H          -2.3666    1.7367    0.3306 H       1  LIG1        0.0625
     36 H          -4.0593   -1.9940   -1.0242 H       1  LIG1        0.0625
     37 H           3.8874   -3.3664   -1.8517 H       1  LIG1        0.0633
     38 H           2.0393   -2.9543   -3.4841 H       1  LIG1        0.0830
     39 H           5.5409    0.6181    0.1896 H       1  LIG1        0.0848
     40 H           7.3097    1.5483    3.4262 H       1  LIG1        0.0293
     41 H           7.2566    2.1845    1.7724 H       1  LIG1        0.0293
     42 H           7.5943    0.4567    2.0598 H       1  LIG1        0.0293
     43 H           2.6658    1.0577    6.4812 H       1  LIG1        0.0660
     44 H           3.8821    2.0495    5.6677 H       1  LIG1        0.0660
     45 H           4.1132    0.2664    5.8442 H       1  LIG1        0.0660
     46 H          -7.8236    0.2694   -0.5605 H       1  LIG1        0.1272
@<TRIPOS>BOND
     1     1     2    2
     2     1     3    2
     3     1     6    1
     4     1    12    1
     5     4    24    1
     6     4    29    1
     7     5    25   ar
     8     5    30   ar
     9     6    18    1
    10     7    13   ar
    11     7    23   ar
    12     8    18   ar
    13     8    27   ar
    14     9    24   ar
    15     9    26   ar
    16    10    11   ar
    17    10    25   ar
    18    11    30   ar
    19    12    13   ar
    20    12    15   ar
    21    13    14    1
    22    14    16   ar
    23    14    17   ar
    24    15    22   ar
    25    16    20   ar
    26    17    21   ar
    27    18    24   ar
    28    19    20   ar
    29    19    21   ar
    30    19    25    1
    31    22    23   ar
    32    26    27   ar
    33    26    28    1
    34     6    31    1
    35    15    32    1
    36    16    33    1
    37    17    34    1
    38    20    35    1
    39    21    36    1
    40    22    37    1
    41    23    38    1
    42    27    39    1
    43    28    40    1
    44    28    41    1
    45    28    42    1
    46    29    43    1
    47    29    44    1
    48    29    45    1
    49    30    46    1
@<TRIPOS>MOLECULE
9910224
 46 49 0 0 0
SMALL
GASTEIGER

@<TRIPOS>ATOM
      1 S           1.3507   -1.4988    1.8166 S.O2    1  LIG1        0.0756
      2 O           2.4388   -2.1173    2.5513 O.2     1  LIG1       -0.1499
      3 O          -0.0086   -1.7356    2.2488 O.2     1  LIG1       -0.1499
      4 O           3.6826    0.7252    3.7068 O.3     1  LIG1       -0.4773
      5 O          -5.7924   -0.0126   -0.8280 O.2     1  LIG1       -0.4229
      6 N           1.6126    0.1717    1.8695 N.pl3   1  LIG1       -0.1951
      7 N           0.6504   -2.2372   -2.1060 N.ar    1  LIG1       -0.2530
      8 N           3.0839    0.6152    0.1208 N.ar    1  LIG1       -0.2325
      9 N           5.2219    1.0739    1.9366 N.ar    1  LIG1       -0.2137
     10 N          -5.1027    1.6810    0.4616 N.ar    1  LIG1       -0.1076
     11 N          -6.4612    1.8262    0.2549 N.ar    1  LIG1       -0.1156
     12 C           1.5046   -1.9631    0.1197 C.ar    1  LIG1        0.1344
     13 C           0.4948   -1.7856   -0.8213 C.ar    1  LIG1        0.0975
     14 C          -0.8290   -1.1663   -0.6160 C.ar    1  LIG1        0.0023
     15 C           2.6820   -2.6315   -0.2640 C.ar    1  LIG1       -0.0315
     16 C          -0.9959    0.1429   -0.1445 C.ar    1  LIG1       -0.0518
     17 C          -1.9895   -1.8759   -0.9756 C.ar    1  LIG1       -0.0518
     18 C           2.9174    0.5609    1.4569 C.ar    1  LIG1        0.2006
     19 C          -3.4243   -0.0214   -0.3343 C.ar    1  LIG1        0.0385
     20 C          -2.2744    0.6979    0.0178 C.ar    1  LIG1       -0.0488
     21 C          -3.2665   -1.3150   -0.8422 C.ar    1  LIG1       -0.0488
     22 C           2.8369   -3.0782   -1.5694 C.ar    1  LIG1       -0.0417
     23 C           1.7998   -2.8568   -2.4489 C.ar    1  LIG1        0.0284
     24 C           3.9675    0.7807    2.3556 C.ar    1  LIG1        0.2574
     25 C          -4.7382    0.5888   -0.1833 C.ar    1  LIG1        0.2480
     26 C           5.3977    1.1276    0.5917 C.ar    1  LIG1        0.0602
     27 C           4.3398    0.9097   -0.2884 C.ar    1  LIG1        0.0510
     28 C           6.7673    1.4350    0.0719 C.3     1  LIG1       -0.0208
     29 C           4.8274    0.9532    4.5238 C.3     1  LIG1        0.0805
     30 C          -6.8195    0.8219   -0.5075 C.ar    1  LIG1        0.2047
     31 H           1.4211    0.4744    2.8261 H       1  LIG1        0.1754
     32 H           3.4824   -2.8071    0.4517 H       1  LIG1        0.0638
     33 H          -0.1332    0.7619    0.0860 H       1  LIG1        0.0624
     34 H          -1.8994   -2.8814   -1.3846 H       1  LIG1        0.0624
     35 H          -2.3623    1.7117    0.4059 H       1  LIG1        0.0625
     36 H          -4.1287   -1.9050   -1.1430 H       1  LIG1        0.0625
     37 H           3.7372   -3.5914   -1.8853 H       1  LIG1        0.0633
     38 H           1.8574   -3.1851   -3.4833 H       1  LIG1        0.0830
     39 H           4.4774    0.9591   -1.3651 H       1  LIG1        0.0848
     40 H           7.4893    1.5006    0.8920 H       1  LIG1        0.0293
     41 H           6.7638    2.3910   -0.4602 H       1  LIG1        0.0293
     42 H           7.1003    0.6458   -0.6097 H       1  LIG1        0.0293
     43 H           4.5149    0.8627    5.5684 H       1  LIG1        0.0660
     44 H           5.2182    1.9666    4.3801 H       1  LIG1        0.0660
     45 H           5.6045    0.2023    4.3424 H       1  LIG1        0.0660
     46 H          -7.7941    0.5853   -0.9039 H       1  LIG1        0.1272
@<TRIPOS>BOND
     1     1     2    2
     2     1     3    2
     3     1     6    1
     4     1    12    1
     5     4    24    1
     6     4    29    1
     7     5    25   ar
     8     5    30   ar
     9     6    18    1
    10     7    13   ar
    11     7    23   ar
    12     8    18   ar
    13     8    27   ar
    14     9    24   ar
    15     9    26   ar
    16    10    11   ar
    17    10    25   ar
    18    11    30   ar
    19    12    13   ar
    20    12    15   ar
    21    13    14    1
    22    14    16   ar
    23    14    17   ar
    24    15    22   ar
    25    16    20   ar
    26    17    21   ar
    27    18    24   ar
    28    19    20   ar
    29    19    21   ar
    30    19    25    1
    31    22    23   ar
    32    26    27   ar
    33    26    28    1
    34     6    31    1
    35    15    32    1
    36    16    33    1
    37    17    34    1
    38    20    35    1
    39    21    36    1
    40    22    37    1
    41    23    38    1
    42    27    39    1
    43    28    40    1
    44    28    41    1
    45    28    42    1
    46    29    43    1
    47    29    44    1
    48    29    45    1
    49    30    46    1
@<TRIPOS>MOLECULE
9910224
 46 49 0 0 0
SMALL
GASTEIGER

@<TRIPOS>ATOM
      1 S           1.3377   -1.4601    1.8025 S.O2    1  LIG1        0.0756
      2 O           2.3780   -2.1486    2.5436 O.2     1  LIG1       -0.1499
      3 O          -0.0351   -1.6141    2.2276 O.2     1  LIG1       -0.1499
      4 O           2.2738    0.8336   -0.8749 O.3     1  LIG1       -0.4773
      5 O          -4.9448    1.6275    0.6096 O.2     1  LIG1       -0.4229
      6 N           1.6929    0.1995    1.8579 N.pl3   1  LIG1       -0.1951
      7 N           0.6089   -2.2586   -2.1007 N.ar    1  LIG1       -0.2530
      8 N           3.9124    0.5792    2.3641 N.ar    1  LIG1       -0.2325
      9 N           4.5673    1.0562   -0.3622 N.ar    1  LIG1       -0.2137
     10 N          -5.9893   -0.0517   -0.4360 N.ar    1  LIG1       -0.1076
     11 N          -6.9488    0.8330    0.0140 N.ar    1  LIG1       -0.1156
     12 C           1.4802   -1.9478    0.1125 C.ar    1  LIG1        0.1344
     13 C           0.4549   -1.8010   -0.8194 C.ar    1  LIG1        0.0975
     14 C          -0.8727   -1.1945   -0.6061 C.ar    1  LIG1        0.0023
     15 C           2.6625   -2.6043   -0.2738 C.ar    1  LIG1       -0.0315
     16 C          -1.0503    0.1205   -0.1524 C.ar    1  LIG1       -0.0518
     17 C          -2.0295   -1.9287   -0.9231 C.ar    1  LIG1       -0.0518
     18 C           2.9879    0.5550    1.3866 C.ar    1  LIG1        0.2006
     19 C          -3.4776   -0.0899   -0.2607 C.ar    1  LIG1        0.0385
     20 C          -2.3318    0.6597    0.0340 C.ar    1  LIG1       -0.0488
     21 C          -3.3094   -1.3872   -0.7569 C.ar    1  LIG1       -0.0488
     22 C           2.8103   -3.0657   -1.5744 C.ar    1  LIG1       -0.0417
     23 C           1.7623   -2.8694   -2.4471 C.ar    1  LIG1        0.0284
     24 C           3.3004    0.8030    0.0439 C.ar    1  LIG1        0.2574
     25 C          -4.8206    0.4413   -0.0719 C.ar    1  LIG1        0.2480
     26 C           5.5093    1.0624    0.6136 C.ar    1  LIG1        0.0602
     27 C           5.1767    0.8338    1.9476 C.ar    1  LIG1        0.0510
     28 C           6.9272    1.3267    0.2145 C.3     1  LIG1       -0.0208
     29 C           2.7125    0.9904   -2.2196 C.3     1  LIG1        0.0805
     30 C          -6.2954    1.7923    0.6234 C.ar    1  LIG1        0.2047
     31 H           1.6584    0.4575    2.8453 H       1  LIG1        0.1754
     32 H           3.4715   -2.7635    0.4371 H       1  LIG1        0.0638
     33 H          -0.1944    0.7543    0.0605 H       1  LIG1        0.0624
     34 H          -1.9351   -2.9411   -1.3143 H       1  LIG1        0.0624
     35 H          -2.4178    1.6781    0.4073 H       1  LIG1        0.0625
     36 H          -4.1759   -1.9940   -1.0156 H       1  LIG1        0.0625
     37 H           3.7150   -3.5717   -1.8926 H       1  LIG1        0.0633
     38 H           1.8148   -3.2109   -3.4770 H       1  LIG1        0.0830
     39 H           5.9303    0.8429    2.7294 H       1  LIG1        0.0848
     40 H           7.0054    1.4724   -0.8679 H       1  LIG1        0.0293
     41 H           7.5624    0.4790    0.4896 H       1  LIG1        0.0293
     42 H           7.2980    2.2303    0.7077 H       1  LIG1        0.0293
     43 H           1.8294    0.9465   -2.8644 H       1  LIG1        0.0660
     44 H           3.3831    0.1772   -2.5177 H       1  LIG1        0.0660
     45 H           3.1870    1.9661   -2.3687 H       1  LIG1        0.0660
     46 H          -6.6850    2.6673    1.1201 H       1  LIG1        0.1272
@<TRIPOS>BOND
     1     1     2    2
     2     1     3    2
     3     1     6    1
     4     1    12    1
     5     4    24    1
     6     4    29    1
     7     5    25   ar
     8     5    30   ar
     9     6    18    1
    10     7    13   ar
    11     7    23   ar
    12     8    18   ar
    13     8    27   ar
    14     9    24   ar
    15     9    26   ar
    16    10    11   ar
    17    10    25   ar
    18    11    30   ar
    19    12    13   ar
    20    12    15   ar
    21    13    14    1
    22    14    16   ar
    23    14    17   ar
    24    15    22   ar
    25    16    20   ar
    26    17    21   ar
    27    18    24   ar
    28    19    20   ar
    29    19    21   ar
    30    19    25    1
    31    22    23   ar
    32    26    27   ar
    33    26    28    1
    34     6    31    1
    35    15    32    1
    36    16    33    1
    37    17    34    1
    38    20    35    1
    39    21    36    1
    40    22    37    1
    41    23    38    1
    42    27    39    1
    43    28    40    1
    44    28    41    1
    45    28    42    1
    46    29    43    1
    47    29    44    1
    48    29    45    1
    49    30    46    1
@<TRIPOS>MOLECULE
9910224
 46 49 0 0 0
SMALL
GASTEIGER

@<TRIPOS>ATOM
      1 S           1.3433   -1.4690    1.8066 S.O2    1  LIG1        0.0756
      2 O           2.3888   -2.1508    2.5459 O.2     1  LIG1       -0.1499
      3 O          -0.0289   -1.6367    2.2327 O.2     1  LIG1       -0.1499
      4 O           2.2669    0.8227   -0.8741 O.3     1  LIG1       -0.4773
      5 O          -5.8764   -0.2236   -0.5968 O.2     1  LIG1       -0.4229
      6 N           1.6869    0.1920    1.8580 N.pl3   1  LIG1       -0.1951
      7 N           0.6138   -2.2852   -2.0916 N.ar    1  LIG1       -0.2530
      8 N           3.9052    0.5860    2.3659 N.ar    1  LIG1       -0.2325
      9 N           4.5590    1.0586   -0.3618 N.ar    1  LIG1       -0.2137
     10 N          -5.1457    1.6750    0.3356 N.ar    1  LIG1       -0.1076
     11 N          -6.5218    1.7502    0.2334 N.ar    1  LIG1       -0.1156
     12 C           1.4880   -1.9589    0.1177 C.ar    1  LIG1        0.1344
     13 C           0.4597   -1.8222   -0.8117 C.ar    1  LIG1        0.0975
     14 C          -0.8689   -1.2163   -0.6027 C.ar    1  LIG1        0.0023
     15 C           2.6750   -2.6066   -0.2689 C.ar    1  LIG1       -0.0315
     16 C          -1.0485    0.1016   -0.1602 C.ar    1  LIG1       -0.0518
     17 C          -2.0250   -1.9512   -0.9239 C.ar    1  LIG1       -0.0518
     18 C           2.9807    0.5559    1.3888 C.ar    1  LIG1        0.2006
     19 C          -3.4760   -0.0971   -0.3139 C.ar    1  LIG1        0.0385
     20 C          -2.3312    0.6472   -0.0024 C.ar    1  LIG1       -0.0488
     21 C          -3.3065   -1.4035   -0.7838 C.ar    1  LIG1       -0.0488
     22 C           2.8241   -3.0703   -1.5685 C.ar    1  LIG1       -0.0417
     23 C           1.7719   -2.8864   -2.4390 C.ar    1  LIG1        0.0284
     24 C           3.2926    0.8022    0.0457 C.ar    1  LIG1        0.2574
     25 C          -4.7955    0.5017   -0.1573 C.ar    1  LIG1        0.2480
     26 C           5.5003    1.0720    0.6139 C.ar    1  LIG1        0.0602
     27 C           5.1685    0.8455    1.9492 C.ar    1  LIG1        0.0510
     28 C           6.9174    1.3398    0.2146 C.3     1  LIG1       -0.0208
     29 C           2.7032    0.9927   -2.2180 C.3     1  LIG1        0.0805
     30 C          -6.9027    0.6245   -0.3178 C.ar    1  LIG1        0.2047
     31 H           1.6416    0.4584    2.8426 H       1  LIG1        0.1754
     32 H           3.4873   -2.7565    0.4402 H       1  LIG1        0.0638
     33 H          -0.1955    0.7365    0.0600 H       1  LIG1        0.0624
     34 H          -1.9265   -2.9677   -1.3043 H       1  LIG1        0.0624
     35 H          -2.4260    1.6706    0.3590 H       1  LIG1        0.0625
     36 H          -4.1645   -2.0160   -1.0513 H       1  LIG1        0.0625
     37 H           3.7328   -3.5687   -1.8877 H       1  LIG1        0.0633
     38 H           1.8252   -3.2303   -3.4682 H       1  LIG1        0.0830
     39 H           5.9218    0.8600    2.7305 H       1  LIG1        0.0848
     40 H           6.9946    1.4867   -0.8676 H       1  LIG1        0.0293
     41 H           7.5545    0.4934    0.4887 H       1  LIG1        0.0293
     42 H           7.2866    2.2438    0.7084 H       1  LIG1        0.0293
     43 H           1.8203    0.9461   -2.8624 H       1  LIG1        0.0660
     44 H           3.3803    0.1868   -2.5218 H       1  LIG1        0.0660
     45 H           3.1699    1.9733   -2.3605 H       1  LIG1        0.0660
     46 H          -7.9005    0.2984   -0.5717 H       1  LIG1        0.1272
@<TRIPOS>BOND
     1     1     2    2
     2     1     3    2
     3     1     6    1
     4     1    12    1
     5     4    24    1
     6     4    29    1
     7     5    25   ar
     8     5    30   ar
     9     6    18    1
    10     7    13   ar
    11     7    23   ar
    12     8    18   ar
    13     8    27   ar
    14     9    24   ar
    15     9    26   ar
    16    10    11   ar
    17    10    25   ar
    18    11    30   ar
    19    12    13   ar
    20    12    15   ar
    21    13    14    1
    22    14    16   ar
    23    14    17   ar
    24    15    22   ar
    25    16    20   ar
    26    17    21   ar
    27    18    24   ar
    28    19    20   ar
    29    19    21   ar
    30    19    25    1
    31    22    23   ar
    32    26    27   ar
    33    26    28    1
    34     6    31    1
    35    15    32    1
    36    16    33    1
    37    17    34    1
    38    20    35    1
    39    21    36    1
    40    22    37    1
    41    23    38    1
    42    27    39    1
    43    28    40    1
    44    28    41    1
    45    28    42    1
    46    29    43    1
    47    29    44    1
    48    29    45    1
    49    30    46    1
@<TRIPOS>MOLECULE
9910224
 46 49 0 0 0
SMALL
GASTEIGER

@<TRIPOS>ATOM
      1 S           1.2951   -1.4966    1.8884 S.O2    1  LIG1        0.0756
      2 O           2.3059   -2.2043    2.6496 O.2     1  LIG1       -0.1499
      3 O          -0.1023   -1.6733    2.2162 O.2     1  LIG1       -0.1499
      4 O           3.8625    0.3901    3.7445 O.3     1  LIG1       -0.4773
      5 O          -5.8100   -0.3418   -0.3472 O.2     1  LIG1       -0.4229
      6 N           1.6227    0.1509    1.9846 N.pl3   1  LIG1       -0.1951
      7 N           0.7505   -2.1796   -2.0785 N.ar    1  LIG1       -0.2530
      8 N           2.9707    0.7953    0.2320 N.ar    1  LIG1       -0.2325
      9 N           5.2662    0.8886    1.9099 N.ar    1  LIG1       -0.2137
     10 N          -5.0911    1.6777    0.2919 N.ar    1  LIG1       -0.1076
     11 N          -6.4724    1.6886    0.3135 N.ar    1  LIG1       -0.1156
     12 C           1.5311   -1.9283    0.1823 C.ar    1  LIG1        0.1344
     13 C           0.5507   -1.7563   -0.7935 C.ar    1  LIG1        0.0975
     14 C          -0.7845   -1.1677   -0.6127 C.ar    1  LIG1        0.0023
     15 C           2.7297   -2.5714   -0.1700 C.ar    1  LIG1       -0.0315
     16 C          -0.9768    0.1912   -0.3308 C.ar    1  LIG1       -0.0518
     17 C          -1.9273   -1.9654   -0.7927 C.ar    1  LIG1       -0.0518
     18 C           2.9107    0.5407    1.5552 C.ar    1  LIG1        0.2006
     19 C          -3.4011   -0.0967   -0.2939 C.ar    1  LIG1        0.0385
     20 C          -2.2654    0.7133   -0.1476 C.ar    1  LIG1       -0.0488
     21 C          -3.2154   -1.4401   -0.6396 C.ar    1  LIG1       -0.0488
     22 C           2.9288   -2.9997   -1.4768 C.ar    1  LIG1       -0.0417
     23 C           1.9178   -2.7819   -2.3894 C.ar    1  LIG1        0.0284
     24 C           4.0318    0.5951    2.3916 C.ar    1  LIG1        0.2574
     25 C          -4.7299    0.4697   -0.0974 C.ar    1  LIG1        0.2480
     26 C           5.3437    1.1216    0.5766 C.ar    1  LIG1        0.0602
     27 C           4.2117    1.0791   -0.2354 C.ar    1  LIG1        0.0510
     28 C           6.6912    1.4171   -0.0043 C.3     1  LIG1       -0.0208
     29 C           4.9762    0.8219    4.5175 C.3     1  LIG1        0.0805
     30 C          -6.8485    0.4912   -0.0670 C.ar    1  LIG1        0.2047
     31 H           0.8720    0.7143    1.6042 H       1  LIG1        0.1754
     32 H           3.5068   -2.7493    0.5717 H       1  LIG1        0.0638
     33 H          -0.1273    0.8671   -0.2784 H       1  LIG1        0.0624
     34 H          -1.8144   -3.0141   -1.0664 H       1  LIG1        0.0624
     35 H          -2.3795    1.7687    0.0990 H       1  LIG1        0.0625
     36 H          -4.0676   -2.0998   -0.7918 H       1  LIG1        0.0625
     37 H           3.8444   -3.5024   -1.7695 H       1  LIG1        0.0633
     38 H           2.0129   -3.1007   -3.4237 H       1  LIG1        0.0830
     39 H           4.2749    1.2658   -1.3034 H       1  LIG1        0.0848
     40 H           7.4546    1.4498    0.7798 H       1  LIG1        0.0293
     41 H           6.6827    2.3868   -0.5113 H       1  LIG1        0.0293
     42 H           6.9725    0.6387   -0.7207 H       1  LIG1        0.0293
     43 H           4.7124    0.7152    5.5744 H       1  LIG1        0.0660
     44 H           5.1981    1.8809    4.3396 H       1  LIG1        0.0660
     45 H           5.8579    0.2004    4.3278 H       1  LIG1        0.0660
     46 H          -7.8451    0.0993   -0.1804 H       1  LIG1        0.1272
@<TRIPOS>BOND
     1     1     2    2
     2     1     3    2
     3     1     6    1
     4     1    12    1
     5     4    24    1
     6     4    29    1
     7     5    25   ar
     8     5    30   ar
     9     6    18    1
    10     7    13   ar
    11     7    23   ar
    12     8    18   ar
    13     8    27   ar
    14     9    24   ar
    15     9    26   ar
    16    10    11   ar
    17    10    25   ar
    18    11    30   ar
    19    12    13   ar
    20    12    15   ar
    21    13    14    1
    22    14    16   ar
    23    14    17   ar
    24    15    22   ar
    25    16    20   ar
    26    17    21   ar
    27    18    24   ar
    28    19    20   ar
    29    19    21   ar
    30    19    25    1
    31    22    23   ar
    32    26    27   ar
    33    26    28    1
    34     6    31    1
    35    15    32    1
    36    16    33    1
    37    17    34    1
    38    20    35    1
    39    21    36    1
    40    22    37    1
    41    23    38    1
    42    27    39    1
    43    28    40    1
    44    28    41    1
    45    28    42    1
    46    29    43    1
    47    29    44    1
    48    29    45    1
    49    30    46    1
@<TRIPOS>MOLECULE
9910224
 46 49 0 0 0
SMALL
GASTEIGER

@<TRIPOS>ATOM
      1 S           1.2455   -1.5415    1.9185 S.O2    1  LIG1        0.0756
      2 O           2.2095   -2.3181    2.6732 O.2     1  LIG1       -0.1499
      3 O          -0.1651   -1.6807    2.2079 O.2     1  LIG1       -0.1499
      4 O           3.9751   -0.1260    3.7057 O.3     1  LIG1       -0.4773
      5 O          -5.7711   -0.0906   -0.7507 O.2     1  LIG1       -0.4229
      6 N           1.6239    0.0903    2.0820 N.pl3   1  LIG1       -0.1951
      7 N           0.7709   -2.1038   -2.0732 N.ar    1  LIG1       -0.2530
      8 N           2.9204    0.9162    0.3749 N.ar    1  LIG1       -0.2325
      9 N           5.3113    0.5456    1.8747 N.ar    1  LIG1       -0.2137
     10 N          -5.0692    1.7545    0.3018 N.ar    1  LIG1       -0.1076
     11 N          -6.4367    1.8516    0.1358 N.ar    1  LIG1       -0.1156
     12 C           1.5135   -1.9132    0.2050 C.ar    1  LIG1        0.1344
     13 C           0.5492   -1.7148   -0.7809 C.ar    1  LIG1        0.0975
     14 C          -0.7813   -1.1142   -0.6100 C.ar    1  LIG1        0.0023
     15 C           2.7208   -2.5399   -0.1471 C.ar    1  LIG1       -0.0315
     16 C          -0.9567    0.2413   -0.2979 C.ar    1  LIG1       -0.0518
     17 C          -1.9327   -1.8883   -0.8359 C.ar    1  LIG1       -0.0518
     18 C           2.9150    0.4629    1.6474 C.ar    1  LIG1        0.2006
     19 C          -3.3847    0.0028   -0.3591 C.ar    1  LIG1        0.0385
     20 C          -2.2399    0.7848   -0.1479 C.ar    1  LIG1       -0.0488
     21 C          -3.2150   -1.3398   -0.7167 C.ar    1  LIG1       -0.0488
     22 C           2.9436   -2.9305   -1.4616 C.ar    1  LIG1       -0.0417
     23 C           1.9446   -2.6940   -2.3823 C.ar    1  LIG1        0.0284
     24 C           4.0853    0.2784    2.3924 C.ar    1  LIG1        0.2574
     25 C          -4.7065    0.6007   -0.2246 C.ar    1  LIG1        0.2480
     26 C           5.3287    0.9994    0.5960 C.ar    1  LIG1        0.0602
     27 C           4.1512    1.1776   -0.1292 C.ar    1  LIG1        0.0510
     28 C           6.6611    1.2796   -0.0260 C.3     1  LIG1       -0.0208
     29 C           5.2285   -0.3390    4.3420 C.3     1  LIG1        0.0805
     30 C          -6.8020    0.7579   -0.4889 C.ar    1  LIG1        0.2047
     31 H           0.8860    0.6929    1.7368 H       1  LIG1        0.1754
     32 H           3.4864   -2.7375    0.6009 H       1  LIG1        0.0638
     33 H          -0.0965    0.8980   -0.1987 H       1  LIG1        0.0624
     34 H          -1.8307   -2.9340   -1.1239 H       1  LIG1        0.0624
     35 H          -2.3424    1.8374    0.1139 H       1  LIG1        0.0625
     36 H          -4.0753   -1.9785   -0.9061 H       1  LIG1        0.0625
     37 H           3.8659   -3.4201   -1.7537 H       1  LIG1        0.0633
     38 H           2.0557   -2.9864   -3.4229 H       1  LIG1        0.0830
     39 H           4.1683    1.5329   -1.1556 H       1  LIG1        0.0848
     40 H           7.4592    1.2175    0.7210 H       1  LIG1        0.0293
     41 H           6.6792    2.2856   -0.4566 H       1  LIG1        0.0293
     42 H           6.8704    0.5477   -0.8124 H       1  LIG1        0.0293
     43 H           5.0308   -0.6643    5.3680 H       1  LIG1        0.0660
     44 H           5.8111    0.5874    4.3955 H       1  LIG1        0.0660
     45 H           5.7962   -1.1321    3.8431 H       1  LIG1        0.0660
     46 H          -7.7869    0.4603   -0.8143 H       1  LIG1        0.1272
@<TRIPOS>BOND
     1     1     2    2
     2     1     3    2
     3     1     6    1
     4     1    12    1
     5     4    24    1
     6     4    29    1
     7     5    25   ar
     8     5    30   ar
     9     6    18    1
    10     7    13   ar
    11     7    23   ar
    12     8    18   ar
    13     8    27   ar
    14     9    24   ar
    15     9    26   ar
    16    10    11   ar
    17    10    25   ar
    18    11    30   ar
    19    12    13   ar
    20    12    15   ar
    21    13    14    1
    22    14    16   ar
    23    14    17   ar
    24    15    22   ar
    25    16    20   ar
    26    17    21   ar
    27    18    24   ar
    28    19    20   ar
    29    19    21   ar
    30    19    25    1
    31    22    23   ar
    32    26    27   ar
    33    26    28    1
    34     6    31    1
    35    15    32    1
    36    16    33    1
    37    17    34    1
    38    20    35    1
    39    21    36    1
    40    22    37    1
    41    23    38    1
    42    27    39    1
    43    28    40    1
    44    28    41    1
    45    28    42    1
    46    29    43    1
    47    29    44    1
    48    29    45    1
    49    30    46    1
@<TRIPOS>MOLECULE
9910224
 46 49 0 0 0
SMALL
GASTEIGER

@<TRIPOS>ATOM
      1 S           1.2660   -1.4922    1.9028 S.O2    1  LIG1        0.0756
      2 O           2.2719   -2.1996    2.6719 O.2     1  LIG1       -0.1499
      3 O          -0.1345   -1.6769    2.2175 O.2     1  LIG1       -0.1499
      4 O           3.8440    0.3447    3.7500 O.3     1  LIG1       -0.4773
      5 O          -5.8029   -0.2467   -0.5443 O.2     1  LIG1       -0.4229
      6 N           1.5855    0.1579    2.0053 N.pl3   1  LIG1       -0.1951
      7 N           0.7622   -2.1537   -2.0703 N.ar    1  LIG1       -0.2530
      8 N           2.9201    0.8333    0.2568 N.ar    1  LIG1       -0.2325
      9 N           5.2336    0.8698    1.9116 N.ar    1  LIG1       -0.2137
     10 N          -5.0845    1.7219    0.2380 N.ar    1  LIG1       -0.1076
     11 N          -6.4633    1.7661    0.1711 N.ar    1  LIG1       -0.1156
     12 C           1.5205   -1.9181    0.1993 C.ar    1  LIG1        0.1344
     13 C           0.5494   -1.7409   -0.7845 C.ar    1  LIG1        0.0975
     14 C          -0.7849   -1.1481   -0.6133 C.ar    1  LIG1        0.0023
     15 C           2.7238   -2.5548   -0.1466 C.ar    1  LIG1       -0.0315
     16 C          -0.9717    0.2171   -0.3579 C.ar    1  LIG1       -0.0518
     17 C          -1.9299   -1.9457   -0.7804 C.ar    1  LIG1       -0.0518
     18 C           2.8710    0.5542    1.5752 C.ar    1  LIG1        0.2006
     19 C          -3.3975   -0.0570   -0.3413 C.ar    1  LIG1        0.0385
     20 C          -2.2590    0.7495   -0.1974 C.ar    1  LIG1       -0.0488
     21 C          -3.2167   -1.4102   -0.6499 C.ar    1  LIG1       -0.0488
     22 C           2.9376   -2.9711   -1.4548 C.ar    1  LIG1       -0.0417
     23 C           1.9344   -2.7492   -2.3751 C.ar    1  LIG1        0.0284
     24 C           4.0015    0.5788    2.4004 C.ar    1  LIG1        0.2574
     25 C          -4.7245    0.5251   -0.1853 C.ar    1  LIG1        0.2480
     26 C           5.2992    1.1300    0.5825 C.ar    1  LIG1        0.0602
     27 C           4.1584    1.1155   -0.2181 C.ar    1  LIG1        0.0510
     28 C           6.6438    1.4208   -0.0073 C.3     1  LIG1       -0.0208
     29 C           4.9730    0.7412    4.5204 C.3     1  LIG1        0.0805
     30 C          -6.8388    0.5992   -0.2943 C.ar    1  LIG1        0.2047
     31 H           0.8316    0.7153    1.6215 H       1  LIG1        0.1754
     32 H           3.4944   -2.7359    0.6004 H       1  LIG1        0.0638
     33 H          -0.1187    0.8890   -0.3111 H       1  LIG1        0.0624
     34 H          -1.8201   -3.0006   -1.0287 H       1  LIG1        0.0624
     35 H          -2.3699    1.8108    0.0225 H       1  LIG1        0.0625
     36 H          -4.0713   -2.0683   -0.7920 H       1  LIG1        0.0625
     37 H           3.8578   -3.4667   -1.7432 H       1  LIG1        0.0633
     38 H           2.0405   -3.0589   -3.4111 H       1  LIG1        0.0830
     39 H           4.2124    1.3237   -1.2826 H       1  LIG1        0.0848
     40 H           7.4140    1.4405    0.7707 H       1  LIG1        0.0293
     41 H           6.6386    2.3951   -0.5053 H       1  LIG1        0.0293
     42 H           6.9127    0.6468   -0.7328 H       1  LIG1        0.0293
     43 H           4.7189    0.6118    5.5770 H       1  LIG1        0.0660
     44 H           5.2077    1.8009    4.3659 H       1  LIG1        0.0660
     45 H           5.8427    0.1118    4.3050 H       1  LIG1        0.0660
     46 H          -7.8356    0.2401   -0.4996 H       1  LIG1        0.1272
@<TRIPOS>BOND
     1     1     2    2
     2     1     3    2
     3     1     6    1
     4     1    12    1
     5     4    24    1
     6     4    29    1
     7     5    25   ar
     8     5    30   ar
     9     6    18    1
    10     7    13   ar
    11     7    23   ar
    12     8    18   ar
    13     8    27   ar
    14     9    24   ar
    15     9    26   ar
    16    10    11   ar
    17    10    25   ar
    18    11    30   ar
    19    12    13   ar
    20    12    15   ar
    21    13    14    1
    22    14    16   ar
    23    14    17   ar
    24    15    22   ar
    25    16    20   ar
    26    17    21   ar
    27    18    24   ar
    28    19    20   ar
    29    19    21   ar
    30    19    25    1
    31    22    23   ar
    32    26    27   ar
    33    26    28    1
    34     6    31    1
    35    15    32    1
    36    16    33    1
    37    17    34    1
    38    20    35    1
    39    21    36    1
    40    22    37    1
    41    23    38    1
    42    27    39    1
    43    28    40    1
    44    28    41    1
    45    28    42    1
    46    29    43    1
    47    29    44    1
    48    29    45    1
    49    30    46    1
@<TRIPOS>MOLECULE
9910224
 46 49 0 0 0
SMALL
GASTEIGER

@<TRIPOS>ATOM
      1 S           1.2536   -1.5166    1.9080 S.O2    1  LIG1        0.0756
      2 O           2.2141   -2.2947    2.6614 O.2     1  LIG1       -0.1499
      3 O          -0.1567   -1.6428    2.2028 O.2     1  LIG1       -0.1499
      4 O           3.9870   -0.1039    3.7008 O.3     1  LIG1       -0.4773
      5 O          -4.9453    1.4609    0.7618 O.2     1  LIG1       -0.4229
      6 N           1.6436    0.1150    2.0675 N.pl3   1  LIG1       -0.1951
      7 N           0.7791   -2.0825   -2.0860 N.ar    1  LIG1       -0.2530
      8 N           2.9496    0.9224    0.3602 N.ar    1  LIG1       -0.2325
      9 N           5.3326    0.5504    1.8701 N.ar    1  LIG1       -0.2137
     10 N          -5.9322   -0.1135   -0.4843 N.ar    1  LIG1       -0.1076
     11 N          -6.9214    0.6786    0.0638 N.ar    1  LIG1       -0.1156
     12 C           1.5174   -1.8905    0.1926 C.ar    1  LIG1        0.1344
     13 C           0.5529   -1.6959   -0.7944 C.ar    1  LIG1        0.0975
     14 C          -0.7917   -1.1257   -0.6188 C.ar    1  LIG1        0.0023
     15 C           2.7253   -2.5186   -0.1571 C.ar    1  LIG1       -0.0315
     16 C          -1.0050    0.2118   -0.2563 C.ar    1  LIG1       -0.0518
     17 C          -1.9218   -1.9214   -0.8747 C.ar    1  LIG1       -0.0518
     18 C           2.9388    0.4774    1.6339 C.ar    1  LIG1        0.2006
     19 C          -3.4235   -0.1072   -0.2731 C.ar    1  LIG1        0.0385
     20 C          -2.3026    0.7075   -0.0585 C.ar    1  LIG1       -0.0488
     21 C          -3.2170   -1.4195   -0.7123 C.ar    1  LIG1       -0.0488
     22 C           2.9495   -2.9124   -1.4702 C.ar    1  LIG1       -0.0417
     23 C           1.9529   -2.6741   -2.3929 C.ar    1  LIG1        0.0284
     24 C           4.1051    0.2897    2.3854 C.ar    1  LIG1        0.2574
     25 C          -4.7819    0.3710   -0.0575 C.ar    1  LIG1        0.2480
     26 C           5.3574    0.9955    0.5891 C.ar    1  LIG1        0.0602
     27 C           4.1840    1.1739   -0.1420 C.ar    1  LIG1        0.0510
     28 C           6.6930    1.2679   -0.0291 C.3     1  LIG1       -0.0208
     29 C           5.2363   -0.3370    4.3382 C.3     1  LIG1        0.0805
     30 C          -6.3014    1.5743    0.7930 C.ar    1  LIG1        0.2047
     31 H           0.9136    0.7203    1.7132 H       1  LIG1        0.1754
     32 H           3.4893   -2.7173    0.5922 H       1  LIG1        0.0638
     33 H          -0.1637    0.8894   -0.1427 H       1  LIG1        0.0624
     34 H          -1.7941   -2.9499   -1.2096 H       1  LIG1        0.0624
     35 H          -2.4285    1.7426    0.2522 H       1  LIG1        0.0625
     36 H          -4.0657   -2.0707   -0.9180 H       1  LIG1        0.0625
     37 H           3.8704   -3.4063   -1.7594 H       1  LIG1        0.0633
     38 H           2.0650   -2.9685   -3.4328 H       1  LIG1        0.0830
     39 H           4.2064    1.5214   -1.1705 H       1  LIG1        0.0848
     40 H           7.4878    1.2109    0.7219 H       1  LIG1        0.0293
     41 H           6.7149    2.2702   -0.4682 H       1  LIG1        0.0293
     42 H           6.9042    0.5292   -0.8085 H       1  LIG1        0.0293
     43 H           5.0326   -0.6543    5.3656 H       1  LIG1        0.0660
     44 H           5.8356    0.5789    4.3882 H       1  LIG1        0.0660
     45 H           5.7894   -1.1422    3.8427 H       1  LIG1        0.0660
     46 H          -6.7217    2.3626    1.3985 H       1  LIG1        0.1272
@<TRIPOS>BOND
     1     1     2    2
     2     1     3    2
     3     1     6    1
     4     1    12    1
     5     4    24    1
     6     4    29    1
     7     5    25   ar
     8     5    30   ar
     9     6    18    1
    10     7    13   ar
    11     7    23   ar
    12     8    18   ar
    13     8    27   ar
    14     9    24   ar
    15     9    26   ar
    16    10    11   ar
    17    10    25   ar
    18    11    30   ar
    19    12    13   ar
    20    12    15   ar
    21    13    14    1
    22    14    16   ar
    23    14    17   ar
    24    15    22   ar
    25    16    20   ar
    26    17    21   ar
    27    18    24   ar
    28    19    20   ar
    29    19    21   ar
    30    19    25    1
    31    22    23   ar
    32    26    27   ar
    33    26    28    1
    34     6    31    1
    35    15    32    1
    36    16    33    1
    37    17    34    1
    38    20    35    1
    39    21    36    1
    40    22    37    1
    41    23    38    1
    42    27    39    1
    43    28    40    1
    44    28    41    1
    45    28    42    1
    46    29    43    1
    47    29    44    1
    48    29    45    1
    49    30    46    1
@<TRIPOS>MOLECULE
9910224
 46 49 0 0 0
SMALL
GASTEIGER

@<TRIPOS>ATOM
      1 S           1.2431   -1.5027    1.9080 S.O2    1  LIG1        0.0756
      2 O           2.2107   -2.2620    2.6752 O.2     1  LIG1       -0.1499
      3 O          -0.1678   -1.6418    2.2026 O.2     1  LIG1       -0.1499
      4 O           3.9470   -0.0509    3.6963 O.3     1  LIG1       -0.4773
      5 O          -5.8209   -0.3527   -0.3479 O.2     1  LIG1       -0.4229
      6 N           1.6178    0.1344    2.0379 N.pl3   1  LIG1       -0.1951
      7 N           0.7679   -2.1296   -2.0736 N.ar    1  LIG1       -0.2530
      8 N           2.9379    0.9188    0.3302 N.ar    1  LIG1       -0.2325
      9 N           5.3079    0.5738    1.8670 N.ar    1  LIG1       -0.2137
     10 N          -5.1180    1.6810    0.2621 N.ar    1  LIG1       -0.1076
     11 N          -6.4993    1.6808    0.2873 N.ar    1  LIG1       -0.1156
     12 C           1.5120   -1.9036    0.2009 C.ar    1  LIG1        0.1344
     13 C           0.5462   -1.7242   -0.7869 C.ar    1  LIG1        0.0975
     14 C          -0.7927   -1.1434   -0.6152 C.ar    1  LIG1        0.0023
     15 C           2.7210   -2.5318   -0.1416 C.ar    1  LIG1       -0.0315
     16 C          -0.9917    0.2156   -0.3364 C.ar    1  LIG1       -0.0518
     17 C          -1.9296   -1.9507   -0.7903 C.ar    1  LIG1       -0.0518
     18 C           2.9156    0.4962    1.6112 C.ar    1  LIG1        0.2006
     19 C          -3.4147   -0.0874   -0.3038 C.ar    1  LIG1        0.0385
     20 C          -2.2841    0.7310   -0.1609 C.ar    1  LIG1       -0.0488
     21 C          -3.2208   -1.4327   -0.6391 C.ar    1  LIG1       -0.0488
     22 C           2.9438   -2.9408   -1.4504 C.ar    1  LIG1       -0.0417
     23 C           1.9439   -2.7199   -2.3744 C.ar    1  LIG1        0.0284
     24 C           4.0758    0.3212    2.3756 C.ar    1  LIG1        0.2574
     25 C          -4.7473    0.4714   -0.1119 C.ar    1  LIG1        0.2480
     26 C           5.3438    0.9989    0.5798 C.ar    1  LIG1        0.0602
     27 C           4.1768    1.1652   -0.1642 C.ar    1  LIG1        0.0510
     28 C           6.6849    1.2628   -0.0305 C.3     1  LIG1       -0.0208
     29 C           5.1897   -0.3066    4.3377 C.3     1  LIG1        0.0805
     30 C          -6.8656    0.4752   -0.0754 C.ar    1  LIG1        0.2047
     31 H           0.8872    0.7254    1.6582 H       1  LIG1        0.1754
     32 H           3.4878   -2.7152    0.6087 H       1  LIG1        0.0638
     33 H          -0.1448    0.8940   -0.2749 H       1  LIG1        0.0624
     34 H          -1.8097   -3.0003   -1.0547 H       1  LIG1        0.0624
     35 H          -2.4050    1.7867    0.0791 H       1  LIG1        0.0625
     36 H          -4.0683   -2.0990   -0.7834 H       1  LIG1        0.0625
     37 H           3.8671   -3.4324   -1.7360 H       1  LIG1        0.0633
     38 H           2.0555   -3.0271   -3.4107 H       1  LIG1        0.0830
     39 H           4.2077    1.4984   -1.1974 H       1  LIG1        0.0848
     40 H           7.4738    1.2095    0.7270 H       1  LIG1        0.0293
     41 H           6.7128    2.2614   -0.4771 H       1  LIG1        0.0293
     42 H           6.9007    0.5172   -0.8021 H       1  LIG1        0.0293
     43 H           4.9772   -0.6123    5.3666 H       1  LIG1        0.0660
     44 H           5.8088    0.5962    4.3823 H       1  LIG1        0.0660
     45 H           5.7259   -1.1271    3.8486 H       1  LIG1        0.0660
     46 H          -7.8602    0.0690   -0.1792 H       1  LIG1        0.1272
@<TRIPOS>BOND
     1     1     2    2
     2     1     3    2
     3     1     6    1
     4     1    12    1
     5     4    24    1
     6     4    29    1
     7     5    25   ar
     8     5    30   ar
     9     6    18    1
    10     7    13   ar
    11     7    23   ar
    12     8    18   ar
    13     8    27   ar
    14     9    24   ar
    15     9    26   ar
    16    10    11   ar
    17    10    25   ar
    18    11    30   ar
    19    12    13   ar
    20    12    15   ar
    21    13    14    1
    22    14    16   ar
    23    14    17   ar
    24    15    22   ar
    25    16    20   ar
    26    17    21   ar
    27    18    24   ar
    28    19    20   ar
    29    19    21   ar
    30    19    25    1
    31    22    23   ar
    32    26    27   ar
    33    26    28    1
    34     6    31    1
    35    15    32    1
    36    16    33    1
    37    17    34    1
    38    20    35    1
    39    21    36    1
    40    22    37    1
    41    23    38    1
    42    27    39    1
    43    28    40    1
    44    28    41    1
    45    28    42    1
    46    29    43    1
    47    29    44    1
    48    29    45    1
    49    30    46    1
@<TRIPOS>MOLECULE
9910224
 46 49 0 0 0
SMALL
GASTEIGER

@<TRIPOS>ATOM
      1 S           1.2787   -1.5299    1.9174 S.O2    1  LIG1        0.0756
      2 O           2.2660   -2.2821    2.6675 O.2     1  LIG1       -0.1499
      3 O          -0.1246   -1.6859    2.2264 O.2     1  LIG1       -0.1499
      4 O           3.9668    0.0799    3.7292 O.3     1  LIG1       -0.4773
      5 O          -5.7630   -0.0795   -0.7505 O.2     1  LIG1       -0.4229
      6 N           1.6392    0.1071    2.0618 N.pl3   1  LIG1       -0.1951
      7 N           0.7626   -2.1251   -2.0660 N.ar    1  LIG1       -0.2530
      8 N           2.9354    0.8663    0.3209 N.ar    1  LIG1       -0.2325
      9 N           5.3073    0.6955    1.8826 N.ar    1  LIG1       -0.2137
     10 N          -5.0585    1.7524    0.3230 N.ar    1  LIG1       -0.1076
     11 N          -6.4250    1.8565    0.1518 N.ar    1  LIG1       -0.1156
     12 C           1.5275   -1.9184    0.2032 C.ar    1  LIG1        0.1344
     13 C           0.5537   -1.7257   -0.7749 C.ar    1  LIG1        0.0975
     14 C          -0.7759   -1.1220   -0.5989 C.ar    1  LIG1        0.0023
     15 C           2.7292   -2.5520   -0.1556 C.ar    1  LIG1       -0.0315
     16 C          -0.9490    0.2320   -0.2818 C.ar    1  LIG1       -0.0518
     17 C          -1.9294   -1.8910   -0.8325 C.ar    1  LIG1       -0.0518
     18 C           2.9237    0.4918    1.6174 C.ar    1  LIG1        0.2006
     19 C          -3.3780    0.0009   -0.3480 C.ar    1  LIG1        0.0385
     20 C          -2.2314    0.7780   -0.1296 C.ar    1  LIG1       -0.0488
     21 C          -3.2108   -1.3395   -0.7142 C.ar    1  LIG1       -0.0488
     22 C           2.9384   -2.9531   -1.4690 C.ar    1  LIG1       -0.0417
     23 C           1.9318   -2.7204   -2.3824 C.ar    1  LIG1        0.0284
     24 C           4.0843    0.4096    2.3953 C.ar    1  LIG1        0.2574
     25 C          -4.6981    0.6021   -0.2131 C.ar    1  LIG1        0.2480
     26 C           5.3332    1.0622    0.5753 C.ar    1  LIG1        0.0602
     27 C           4.1646    1.1444   -0.1772 C.ar    1  LIG1        0.0510
     28 C           6.6659    1.3563   -0.0397 C.3     1  LIG1       -0.0208
     29 C           5.1835    0.2137    4.4539 C.3     1  LIG1        0.0805
     30 C          -6.7918    0.7706   -0.4850 C.ar    1  LIG1        0.2047
     31 H           0.8905    0.6973    1.7194 H       1  LIG1        0.1754
     32 H           3.5017   -2.7453    0.5864 H       1  LIG1        0.0638
     33 H          -0.0885    0.8880   -0.1833 H       1  LIG1        0.0624
     34 H          -1.8299   -2.9346   -1.1286 H       1  LIG1        0.0624
     35 H          -2.3316    1.8294    0.1383 H       1  LIG1        0.0625
     36 H          -4.0722   -1.9741   -0.9119 H       1  LIG1        0.0625
     37 H           3.8565   -3.4475   -1.7661 H       1  LIG1        0.0633
     38 H           2.0324   -3.0201   -3.4216 H       1  LIG1        0.0830
     39 H           4.1884    1.4320   -1.2252 H       1  LIG1        0.0848
     40 H           7.4569    1.3397    0.7174 H       1  LIG1        0.0293
     41 H           6.6622    2.3475   -0.5032 H       1  LIG1        0.0293
     42 H           6.9046    0.6049   -0.7988 H       1  LIG1        0.0293
     43 H           4.9735   -0.0118    5.5042 H       1  LIG1        0.0660
     44 H           5.5642    1.2406    4.4077 H       1  LIG1        0.0660
     45 H           5.9361   -0.4999    4.1022 H       1  LIG1        0.0660
     46 H          -7.7764    0.4803   -0.8180 H       1  LIG1        0.1272
@<TRIPOS>BOND
     1     1     2    2
     2     1     3    2
     3     1     6    1
     4     1    12    1
     5     4    24    1
     6     4    29    1
     7     5    25   ar
     8     5    30   ar
     9     6    18    1
    10     7    13   ar
    11     7    23   ar
    12     8    18   ar
    13     8    27   ar
    14     9    24   ar
    15     9    26   ar
    16    10    11   ar
    17    10    25   ar
    18    11    30   ar
    19    12    13   ar
    20    12    15   ar
    21    13    14    1
    22    14    16   ar
    23    14    17   ar
    24    15    22   ar
    25    16    20   ar
    26    17    21   ar
    27    18    24   ar
    28    19    20   ar
    29    19    21   ar
    30    19    25    1
    31    22    23   ar
    32    26    27   ar
    33    26    28    1
    34     6    31    1
    35    15    32    1
    36    16    33    1
    37    17    34    1
    38    20    35    1
    39    21    36    1
    40    22    37    1
    41    23    38    1
    42    27    39    1
    43    28    40    1
    44    28    41    1
    45    28    42    1
    46    29    43    1
    47    29    44    1
    48    29    45    1
    49    30    46    1
@<TRIPOS>MOLECULE
9910224
 46 49 0 0 0
SMALL
GASTEIGER

@<TRIPOS>ATOM
      1 S           1.2772   -1.5101    1.9133 S.O2    1  LIG1        0.0756
      2 O           2.2598   -2.2599    2.6699 O.2     1  LIG1       -0.1499
      3 O          -0.1252   -1.6668    2.2202 O.2     1  LIG1       -0.1499
      4 O           3.9633    0.0809    3.7232 O.3     1  LIG1       -0.4773
      5 O          -4.9232    1.4978    0.7275 O.2     1  LIG1       -0.4229
      6 N           1.6346    0.1287    2.0554 N.pl3   1  LIG1       -0.1951
      7 N           0.7849   -2.0924   -2.0748 N.ar    1  LIG1       -0.2530
      8 N           2.9340    0.8903    0.3202 N.ar    1  LIG1       -0.2325
      9 N           5.3068    0.6923    1.8760 N.ar    1  LIG1       -0.2137
     10 N          -5.9200   -0.1316   -0.4376 N.ar    1  LIG1       -0.1076
     11 N          -6.9045    0.6815    0.0854 N.ar    1  LIG1       -0.1156
     12 C           1.5325   -1.8993    0.2017 C.ar    1  LIG1        0.1344
     13 C           0.5646   -1.7055   -0.7823 C.ar    1  LIG1        0.0975
     14 C          -0.7790   -1.1348   -0.6018 C.ar    1  LIG1        0.0023
     15 C           2.7384   -2.5285   -0.1518 C.ar    1  LIG1       -0.0315
     16 C          -0.9899    0.2111   -0.2704 C.ar    1  LIG1       -0.0518
     17 C          -1.9105   -1.9380   -0.8252 C.ar    1  LIG1       -0.0518
     18 C           2.9215    0.5097    1.6144 C.ar    1  LIG1        0.2006
     19 C          -3.4083   -0.1099   -0.2572 C.ar    1  LIG1        0.0385
     20 C          -2.2861    0.7107   -0.0729 C.ar    1  LIG1       -0.0488
     21 C          -3.2045   -1.4329   -0.6634 C.ar    1  LIG1       -0.0488
     22 C           2.9572   -2.9229   -1.4661 C.ar    1  LIG1       -0.0417
     23 C           1.9575   -2.6841   -2.3857 C.ar    1  LIG1        0.0284
     24 C           4.0830    0.4144    2.3912 C.ar    1  LIG1        0.2574
     25 C          -4.7661    0.3734   -0.0450 C.ar    1  LIG1        0.2480
     26 C           5.3348    1.0619    0.5718 C.ar    1  LIG1        0.0602
     27 C           4.1650    1.1588   -0.1809 C.ar    1  LIG1        0.0510
     28 C           6.6677    1.3446   -0.0454 C.3     1  LIG1       -0.0208
     29 C           5.1837    0.1912    4.4455 C.3     1  LIG1        0.0805
     30 C          -6.2797    1.6104    0.7678 C.ar    1  LIG1        0.2047
     31 H           0.8906    0.7119    1.6911 H       1  LIG1        0.1754
     32 H           3.5062   -2.7250    0.5946 H       1  LIG1        0.0638
     33 H          -0.1478    0.8923   -0.1842 H       1  LIG1        0.0624
     34 H          -1.7845   -2.9744   -1.1365 H       1  LIG1        0.0624
     35 H          -2.4101    1.7537    0.2107 H       1  LIG1        0.0625
     36 H          -4.0540   -2.0898   -0.8449 H       1  LIG1        0.0625
     37 H           3.8772   -3.4164   -1.7589 H       1  LIG1        0.0633
     38 H           2.0664   -2.9774   -3.4259 H       1  LIG1        0.0830
     39 H           4.1887    1.4502   -1.2269 H       1  LIG1        0.0848
     40 H           7.4604    1.3157    0.7083 H       1  LIG1        0.0293
     41 H           6.6735    2.3373   -0.5065 H       1  LIG1        0.0293
     42 H           6.8954    0.5931   -0.8096 H       1  LIG1        0.0293
     43 H           4.9734   -0.0403    5.4940 H       1  LIG1        0.0660
     44 H           5.5782    1.2129    4.4064 H       1  LIG1        0.0660
     45 H           5.9254   -0.5299    4.0853 H       1  LIG1        0.0660
     46 H          -6.6953    2.4241    1.3413 H       1  LIG1        0.1272
@<TRIPOS>BOND
     1     1     2    2
     2     1     3    2
     3     1     6    1
     4     1    12    1
     5     4    24    1
     6     4    29    1
     7     5    25   ar
     8     5    30   ar
     9     6    18    1
    10     7    13   ar
    11     7    23   ar
    12     8    18   ar
    13     8    27   ar
    14     9    24   ar
    15     9    26   ar
    16    10    11   ar
    17    10    25   ar
    18    11    30   ar
    19    12    13   ar
    20    12    15   ar
    21    13    14    1
    22    14    16   ar
    23    14    17   ar
    24    15    22   ar
    25    16    20   ar
    26    17    21   ar
    27    18    24   ar
    28    19    20   ar
    29    19    21   ar
    30    19    25    1
    31    22    23   ar
    32    26    27   ar
    33    26    28    1
    34     6    31    1
    35    15    32    1
    36    16    33    1
    37    17    34    1
    38    20    35    1
    39    21    36    1
    40    22    37    1
    41    23    38    1
    42    27    39    1
    43    28    40    1
    44    28    41    1
    45    28    42    1
    46    29    43    1
    47    29    44    1
    48    29    45    1
    49    30    46    1
@<TRIPOS>MOLECULE
9910224
 46 49 0 0 0
SMALL
GASTEIGER

@<TRIPOS>ATOM
      1 S           1.2663   -1.4964    1.9166 S.O2    1  LIG1        0.0756
      2 O           2.2591   -2.2178    2.6866 O.2     1  LIG1       -0.1499
      3 O          -0.1376   -1.6688    2.2202 O.2     1  LIG1       -0.1499
      4 O           3.9164    0.1182    3.7099 O.3     1  LIG1       -0.4773
      5 O          -5.7944   -0.3469   -0.3041 O.2     1  LIG1       -0.4229
      6 N           1.5984    0.1523    2.0223 N.pl3   1  LIG1       -0.1951
      7 N           0.7856   -2.1335   -2.0618 N.ar    1  LIG1       -0.2530
      8 N           2.9116    0.9038    0.2936 N.ar    1  LIG1       -0.2325
      9 N           5.2739    0.7122    1.8676 N.ar    1  LIG1       -0.2137
     10 N          -5.0834    1.7125    0.2024 N.ar    1  LIG1       -0.1076
     11 N          -6.4641    1.7175    0.2335 N.ar    1  LIG1       -0.1156
     12 C           1.5331   -1.9118    0.2124 C.ar    1  LIG1        0.1344
     13 C           0.5659   -1.7331   -0.7740 C.ar    1  LIG1        0.0975
     14 C          -0.7707   -1.1515   -0.5968 C.ar    1  LIG1        0.0023
     15 C           2.7430   -2.5358   -0.1324 C.ar    1  LIG1       -0.0315
     16 C          -0.9662    0.2201   -0.3848 C.ar    1  LIG1       -0.0518
     17 C          -1.9073   -1.9702   -0.7010 C.ar    1  LIG1       -0.0518
     18 C           2.8890    0.5363    1.5916 C.ar    1  LIG1        0.2006
     19 C          -3.3871   -0.0840   -0.2911 C.ar    1  LIG1        0.0385
     20 C          -2.2560    0.7427   -0.2138 C.ar    1  LIG1       -0.0488
     21 C          -3.1962   -1.4464   -0.5513 C.ar    1  LIG1       -0.0488
     22 C           2.9650   -2.9405   -1.4429 C.ar    1  LIG1       -0.0417
     23 C           1.9633   -2.7191   -2.3657 C.ar    1  LIG1        0.0284
     24 C           4.0451    0.4433    2.3767 C.ar    1  LIG1        0.2574
     25 C          -4.7174    0.4848   -0.1140 C.ar    1  LIG1        0.2480
     26 C           5.3108    1.0719    0.5608 C.ar    1  LIG1        0.0602
     27 C           4.1470    1.1668   -0.2002 C.ar    1  LIG1        0.0510
     28 C           6.6495    1.3447   -0.0509 C.3     1  LIG1       -0.0208
     29 C           5.1393    0.1932    4.4324 C.3     1  LIG1        0.0805
     30 C          -6.8356    0.4967   -0.0689 C.ar    1  LIG1        0.2047
     31 H           0.8557    0.7130    1.6198 H       1  LIG1        0.1754
     32 H           3.5117   -2.7169    0.6165 H       1  LIG1        0.0638
     33 H          -0.1185    0.9011   -0.3763 H       1  LIG1        0.0624
     34 H          -1.7895   -3.0328   -0.9086 H       1  LIG1        0.0624
     35 H          -2.3751    1.8103   -0.0324 H       1  LIG1        0.0625
     36 H          -4.0451   -2.1212   -0.6395 H       1  LIG1        0.0625
     37 H           3.8899   -3.4274   -1.7315 H       1  LIG1        0.0633
     38 H           2.0758   -3.0210   -3.4033 H       1  LIG1        0.0830
     39 H           4.1786    1.4515   -1.2477 H       1  LIG1        0.0848
     40 H           7.4382    1.3104    0.7078 H       1  LIG1        0.0293
     41 H           6.6644    2.3376   -0.5108 H       1  LIG1        0.0293
     42 H           6.8758    0.5920   -0.8125 H       1  LIG1        0.0293
     43 H           4.9243   -0.0431    5.4791 H       1  LIG1        0.0660
     44 H           5.5572    1.2059    4.4022 H       1  LIG1        0.0660
     45 H           5.8639   -0.5416    4.0655 H       1  LIG1        0.0660
     46 H          -7.8327    0.0925   -0.1527 H       1  LIG1        0.1272
@<TRIPOS>BOND
     1     1     2    2
     2     1     3    2
     3     1     6    1
     4     1    12    1
     5     4    24    1
     6     4    29    1
     7     5    25   ar
     8     5    30   ar
     9     6    18    1
    10     7    13   ar
    11     7    23   ar
    12     8    18   ar
    13     8    27   ar
    14     9    24   ar
    15     9    26   ar
    16    10    11   ar
    17    10    25   ar
    18    11    30   ar
    19    12    13   ar
    20    12    15   ar
    21    13    14    1
    22    14    16   ar
    23    14    17   ar
    24    15    22   ar
    25    16    20   ar
    26    17    21   ar
    27    18    24   ar
    28    19    20   ar
    29    19    21   ar
    30    19    25    1
    31    22    23   ar
    32    26    27   ar
    33    26    28    1
    34     6    31    1
    35    15    32    1
    36    16    33    1
    37    17    34    1
    38    20    35    1
    39    21    36    1
    40    22    37    1
    41    23    38    1
    42    27    39    1
    43    28    40    1
    44    28    41    1
    45    28    42    1
    46    29    43    1
    47    29    44    1
    48    29    45    1
    49    30    46    1
