@<TRIPOS>MOLECULE
scripts/ET1_17-21_50CONFORMERS_NOBACKBONE.pdb
 26 23 0 0 0
SMALL
GASTEIGER

@<TRIPOS>ATOM
      1  CB        -6.0910   -1.6180   -1.3980 C.3    17  LEU17       0.0000
      2  CG        -7.1940   -2.5360   -1.9300 C.3    17  LEU17       0.0000
      3  CD1       -6.7940   -3.3700   -3.1490 C.3    17  LEU17       0.0000
      4  CD2       -7.6880   -3.5890   -0.9250 C.3    17  LEU17       0.0000
      5  CB        -9.2050    1.7950   -0.5390 C.3    18  ASP18       0.1258
      6  CG       -10.3200    2.7850   -0.5550 C.2    18  ASP18       0.3654
      7  OD1      -11.0210    2.7300   -1.6150 O.co2  18  ASP18      -0.2456
      8  OD2      -10.4710    3.5410    0.4120 O.co2  18  ASP18      -0.2456
      9  CB        -4.9810    4.1540    2.2170 C.3    19  ILE19       0.0000
     10  CG2       -4.0530    5.3090    2.7190 C.3    19  ILE19       0.0000
     11  CG1       -5.7910    3.4760    3.3290 C.3    19  ILE19       0.0000
     12  CD1       -4.8670    2.8100    4.3570 C.3    19  ILE19       0.0000
     13  CB        -2.0910    5.4810   -1.4650 C.3    20  ILE20       0.0000
     14  CG2       -1.9860    6.7460   -0.5500 C.3    20  ILE20       0.0000
     15  CG1       -1.4960    4.2170   -0.7850 C.3    20  ILE20       0.0000
     16  CD1        0.0110    4.2170   -0.4870 C.3    20  ILE20       0.0000
     17  CB        -5.0110    4.3230   -5.9680 C.3    21  TRP21       0.0066
     18  CG        -5.3960    3.4640   -7.1630 C.3    21  TRP21       0.0452
     19  CD1       -5.6040    3.8300   -8.4930 C.3    21  TRP21       0.1165
     20  NE1       -5.9490    2.6430   -9.2160 N.pl3  21  TRP21      -0.2376
     21  CE2       -5.6830    1.5430   -8.4990 C.ar   21  TRP21       0.0614
     22  CZ2       -5.7540    0.1720   -8.7210 C.ar   21  TRP21       0.0158
     23  CH2       -5.4780   -0.7730   -7.7240 C.ar   21  TRP21       0.0013
     24  CZ3       -5.2550   -0.3200   -6.3820 C.ar   21  TRP21      -0.0002
     25  CE3       -5.1180    1.0670   -6.1140 C.ar   21  TRP21      -0.0030
     26  CD2       -5.3540    2.0190   -7.1840 C.ar   21  TRP21      -0.0059
@<TRIPOS>BOND
     1    22    23   ar
     2    22    21   ar
     3    23    24   ar
     4    21    20    1
     5    21    26   ar
     6    24    25   ar
     7    20    19    1
     8    25    26   ar
     9    26    18    1
    10    19    18    1
    11    18    17    1
    12     3     2    1
    13     2     4    1
    14     2     1    1
    15     5     6    1
    16     7     6   ar
    17    13    15    1
    18    13    14    1
    19    15    16    1
    20     6     8   ar
    21     9    11    1
    22     9    10    1
    23    11    12    1
@<TRIPOS>MOLECULE
16219006
 44 47 0 0 0
SMALL
GASTEIGER

@<TRIPOS>ATOM
      1 O          -8.4327    3.8574    1.5099 O.2     1  PRO11      -0.2738
      2 O          -6.4505    0.0828    0.8657 O.2     5  ASP55      -0.2735
      3 O          -3.9739    2.1831    0.9495 O.2     2  VAL22      -0.2738
      4 O          -7.6731    0.9642   -3.5796 O.2     4  TRP44      -0.2738
      5 O          -5.5884    4.1907   -2.7005 O.2     3  LEU33      -0.2738
      6 OD1        -8.7481   -2.5362   -0.2207 O.co2   5  ASP55      -0.5497
      7 OD2        -7.1107   -4.1113   -0.0287 O.co2   5  ASP55      -0.5497
      8 N          -8.4885    0.8166    0.1954 N.am    1  PRO11      -0.2884
      9 N          -6.6639    2.5032    2.0395 N.am    2  VAL22      -0.3022
     10 N          -6.1782    0.1023   -2.0688 N.am    5  ASP55      -0.3021
     11 N          -4.5074    4.1752   -0.0255 N.am    3  LEU33      -0.3025
     12 N          -4.4364    2.2062   -2.8388 N.am    4  TRP44      -0.3022
     13 NE1        -6.7548   -1.1705   -7.0710 N.ar    4  TRP44      -0.3604
     14 CA         -8.7926    1.4296    1.4879 C.3     1  PRO11       0.1023
     15 CB        -10.3018    1.6824    1.4450 C.3     1  PRO11      -0.0243
     16 CG        -10.6007    1.8152   -0.0431 C.3     1  PRO11      -0.0350
     17 CD         -9.6577    0.8004   -0.6671 C.3     1  PRO11       0.0156
     18 C          -7.9759    2.7280    1.6753 C.2     1  PRO11       0.2342
     19 C          -7.3623    0.0375    0.0268 C.2     5  ASP55       0.2369
     20 CA         -5.6653    3.5604    2.0596 C.3     2  VAL22       0.1017
     21 CA         -7.1622   -0.7000   -1.3180 C.3     5  ASP55       0.1047
     22 CB         -5.0517    3.7394    3.4659 C.3     2  VAL22      -0.0197
     23 CA         -3.7016    3.8908   -1.2060 C.3     3  LEU33       0.0996
     24 C          -4.6298    3.2232    0.9662 C.2     2  VAL22       0.2342
     25 CB         -6.5862   -2.0888   -1.0898 C.3     5  ASP55       0.0138
     26 CA         -5.3443    1.6088   -3.8361 C.3     4  TRP44       0.1034
     27 CB         -2.9076    5.1246   -1.6493 C.3     3  LEU33      -0.0236
     28 CG         -1.8883    5.6324   -0.6072 C.3     3  LEU33      -0.0446
     29 C          -6.5312    0.9173   -3.1249 C.2     4  TRP44       0.2343
     30 CB         -4.5633    0.5990   -4.6976 C.3     4  TRP44       0.0013
     31 C          -4.6727    3.4633   -2.3234 C.2     3  LEU33       0.2340
     32 CG1        -4.3577    2.4921    4.0203 C.3     2  VAL22      -0.0605
     33 CG2        -4.0920    4.9322    3.5054 C.3     2  VAL22      -0.0605
     34 CG         -5.3173    0.0427   -5.8685 C.ar    4  TRP44      -0.0201
     35 CG         -7.5811   -2.9897   -0.3708 C.2     5  ASP55       0.0440
     36 CD1        -1.1612    6.8627   -1.1549 C.3     3  LEU33      -0.0626
     37 CD2        -0.8669    4.5653   -0.2087 C.3     3  LEU33      -0.0626
     38 CD2        -5.1503    0.3657   -7.2562 C.ar    4  TRP44       0.0029
     39 CD1        -6.2966   -0.9299   -5.8067 C.ar    4  TRP44       0.0060
     40 CE2        -6.0562   -0.4128   -7.9803 C.ar    4  TRP44       0.0467
     41 CE3        -4.3071    1.2430   -7.9705 C.ar    4  TRP44      -0.0523
     42 CZ2        -6.1618   -0.3598   -9.3755 C.ar    4  TRP44      -0.0378
     43 CZ3        -4.3947    1.3039   -9.3672 C.ar    4  TRP44      -0.0611
     44 CH2        -5.3099    0.5130  -10.0571 C.ar    4  TRP44      -0.0598
@<TRIPOS>BOND
     1     1    18    2
     2     2    19    2
     3     3    24    2
     4     4    29    2
     5     5    31    2
     6     6    35   ar
     7     7    35   ar
     8     8    14    1
     9     8    17    1
    10     8    19   am
    11     9    18   am
    12     9    20    1
    13    10    21    1
    14    10    29   am
    15    11    23    1
    16    11    24   am
    17    12    26    1
    18    12    31   am
    19    13    39   ar
    20    13    40   ar
    21    14    15    1
    22    14    18    1
    23    15    16    1
    24    16    17    1
    25    19    21    1
    26    20    22    1
    27    20    24    1
    28    21    25    1
    29    22    32    1
    30    22    33    1
    31    23    27    1
    32    23    31    1
    33    25    35    1
    34    26    29    1
    35    26    30    1
    36    27    28    1
    37    28    36    1
    38    28    37    1
    39    30    34    1
    40    34    38   ar
    41    34    39   ar
    42    38    40   ar
    43    38    41   ar
    44    40    42   ar
    45    41    43   ar
    46    42    44   ar
    47    43    44   ar
@<TRIPOS>MOLECULE
scripts/ET1_17-21_50CONFORMERS.pdb
 47 48 0 0 0
SMALL
GASTEIGER

@<TRIPOS>ATOM
      1  N         -4.3360    0.0210   -1.6350 N.3    17  LEU17      -0.1231
      2  CA        -5.5740   -0.4820   -2.2450 C.3    17  LEU17       0.1693
      3  CB        -6.0910   -1.6180   -1.3980 C.3    17  LEU17       0.0284
      4  CG        -7.1940   -2.5360   -1.9300 C.3    17  LEU17       0.0019
      5  CD1       -6.7940   -3.3700   -3.1490 C.3    17  LEU17       0.0001
      6  CD2       -7.6880   -3.5890   -0.9250 C.3    17  LEU17       0.0001
      7  C         -6.7280    0.5290   -2.3580 C.2    17  LEU17       0.2592
      8  O         -7.4990    0.5240   -3.3000 O.2    17  LEU17      -0.2718
      9  N         -6.9180    1.3590   -1.3630 N.am   18  ASP18      -0.1960
     10  CA        -7.9590    2.3730   -1.2220 C.3    18  ASP18       0.1840
     11  CB        -9.2050    1.7950   -0.5390 C.3    18  ASP18       0.1450
     12  CG       -10.3200    2.7850   -0.5550 C.2    18  ASP18       0.3671
     13  OD1      -11.0210    2.7300   -1.6150 O.co2  18  ASP18      -0.2456
     14  OD2      -10.4710    3.5410    0.4120 O.co2  18  ASP18      -0.2456
     15  C         -7.4480    3.6540   -0.5780 C.2    18  ASP18       0.2622
     16  O         -7.7580    4.7430   -1.0410 O.2    18  ASP18      -0.2715
     17  N         -6.6220    3.5120    0.4740 N.am   19  ILE19      -0.1963
     18  CA        -5.9360    4.6640    1.0770 C.3    19  ILE19       0.1727
     19  CB        -4.9810    4.1540    2.2170 C.3    19  ILE19       0.0290
     20  CG2       -4.0530    5.3090    2.7190 C.3    19  ILE19       0.0023
     21  CG1       -5.7910    3.4760    3.3290 C.3    19  ILE19       0.0022
     22  CD1       -4.8670    2.8100    4.3570 C.3    19  ILE19       0.0001
     23  C         -5.1600    5.4290    0.0000 C.2    19  ILE19       0.2616
     24  O         -5.3650    6.6380   -0.1130 O.2    19  ILE19      -0.2715
     25  N         -4.3550    4.7180   -0.7820 N.am   20  ILE20      -0.1963
     26  CA        -3.5620    5.1550   -1.8730 C.3    20  ILE20       0.1727
     27  CB        -2.0910    5.4810   -1.4650 C.3    20  ILE20       0.0290
     28  CG2       -1.9860    6.7460   -0.5500 C.3    20  ILE20       0.0023
     29  CG1       -1.4960    4.2170   -0.7850 C.3    20  ILE20       0.0022
     30  CD1        0.0110    4.2170   -0.4870 C.3    20  ILE20       0.0001
     31  C         -3.6680    4.2220   -3.0430 C.2    20  ILE20       0.2617
     32  O         -3.6650    2.9720   -2.8760 O.2    20  ILE20      -0.2715
     33  N         -3.5890    4.8530   -4.2030 N.am   21  TRP21      -0.1941
     34  CA        -3.5660    4.1980   -5.4940 C.3    21  TRP21       0.1982
     35  CB        -5.0110    4.3230   -5.9680 C.3    21  TRP21       0.0394
     36  CG        -5.3960    3.4640   -7.1630 C.3    21  TRP21       0.0475
     37  CD1       -5.6040    3.8300   -8.4930 C.3    21  TRP21       0.1166
     38  NE1       -5.9490    2.6430   -9.2160 N.pl3  21  TRP21      -0.2376
     39  CE2       -5.6830    1.5430   -8.4990 C.ar   21  TRP21       0.0614
     40  CZ2       -5.7540    0.1720   -8.7210 C.ar   21  TRP21       0.0158
     41  CH2       -5.4780   -0.7730   -7.7240 C.ar   21  TRP21       0.0013
     42  CZ3       -5.2550   -0.3200   -6.3820 C.ar   21  TRP21      -0.0002
     43  CE3       -5.1180    1.0670   -6.1140 C.ar   21  TRP21      -0.0030
     44  CD2       -5.3540    2.0190   -7.1840 C.ar   21  TRP21      -0.0059
     45  C         -2.6690    4.8410   -6.5150 C.2    21  TRP21       0.3842
     46  O         -1.9570    4.1290   -7.1910 O.co2  21  TRP21      -0.2437
     47  OXT       -2.6800    6.0900   -6.6540 O.co2  21  TRP21      -0.2437
@<TRIPOS>BOND
     1    40    41   ar
     2    40    39   ar
     3    41    42   ar
     4    39    38    1
     5    39    44   ar
     6    42    43   ar
     7    38    37    1
     8    43    44   ar
     9    44    36    1
    10    37    36    1
    11    36    35    1
    12    47    45   ar
    13     5     4    1
    14    35    34    1
    15    45    34    1
    16    45    46   ar
    17    34    33    1
    18     8     7    2
    19     4     6    1
    20     4     3    1
    21     2     3    1
    22     2     1    1
    23     2     7    1
    24     7     9   am
    25    33    31   am
    26    32    31    2
    27    31    26    1
    28     9    10    1
    29    10    11    1
    30    10    15    1
    31    26    27    1
    32    26    25    1
    33    11    12    1
    34    13    12   ar
    35    27    29    1
    36    27    28    1
    37    29    30    1
    38    16    15    2
    39    15    17   am
    40    12    14   ar
    41    25    23   am
    42    17    18    1
    43    23    24    2
    44    23    18    1
    45    18    19    1
    46    19    21    1
    47    19    20    1
    48    21    22    1
