@<TRIPOS>MOLECULE
scripts/ET1_17-21_50CONFORMERS_NOBACKBONE.pdb
 26 23 0 0 0
SMALL
GASTEIGER

@<TRIPOS>ATOM
      1  CB        -5.9840   -1.7530   -2.0080 C.3    17  LEU17       0.0000
      2  CG        -7.2840   -2.5520   -2.1910 C.3    17  LEU17       0.0000
      3  CD1       -7.5520   -2.7200   -3.7010 C.3    17  LEU17       0.0000
      4  CD2       -7.1010   -3.9580   -1.6060 C.3    17  LEU17       0.0000
      5  CB        -9.3360    0.5030    0.2000 C.3    18  ASP18       0.1258
      6  CG       -10.5620    1.0400    0.9330 C.2    18  ASP18       0.3654
      7  OD1      -11.5820    1.4390    0.3270 O.co2  18  ASP18      -0.2456
      8  OD2      -10.6020    0.9250    2.1700 O.co2  18  ASP18      -0.2456
      9  CB        -5.7240    3.4190    3.3350 C.3    19  ILE19       0.0000
     10  CG2       -5.2920    4.6760    4.1320 C.3    19  ILE19       0.0000
     11  CG1       -6.1290    2.2320    4.1470 C.3    19  ILE19       0.0000
     12  CD1       -7.3890    2.5360    5.0150 C.3    19  ILE19       0.0000
     13  CB        -3.2240    5.7090   -0.5910 C.3    20  ILE20       0.0000
     14  CG2       -3.3440    6.9610    0.1730 C.3    20  ILE20       0.0000
     15  CG1       -2.2390    4.6130   -0.1520 C.3    20  ILE20       0.0000
     16  CD1       -0.7490    4.9910   -0.4640 C.3    20  ILE20       0.0000
     17  CB        -7.1080    4.0630   -4.5610 C.3    21  TRP21       0.0066
     18  CG        -8.2250    4.9670   -4.1900 C.3    21  TRP21       0.0452
     19  CD1       -8.7040    5.2340   -2.9610 C.3    21  TRP21       0.1165
     20  NE1       -9.7700    6.1230   -3.0030 N.pl3  21  TRP21      -0.2376
     21  CE2      -10.0000    6.4240   -4.3510 C.ar   21  TRP21       0.0614
     22  CZ2      -10.9360    7.2380   -5.0320 C.ar   21  TRP21       0.0158
     23  CH2      -10.9170    7.4740   -6.4400 C.ar   21  TRP21       0.0013
     24  CZ3       -9.9650    6.7540   -7.1530 C.ar   21  TRP21      -0.0002
     25  CE3       -9.0360    5.8520   -6.5300 C.ar   21  TRP21      -0.0030
     26  CD2       -8.9440    5.8070   -5.1090 C.ar   21  TRP21      -0.0059
@<TRIPOS>BOND
     1    22    23   ar
     2    22    21   ar
     3    23    24   ar
     4    21    20    1
     5    21    26   ar
     6    24    25   ar
     7    20    19    1
     8    25    26   ar
     9    26    18    1
    10    19    18    1
    11    18    17    1
    12     3     2    1
    13     2     4    1
    14     2     1    1
    15     5     6    1
    16     7     6   ar
    17    13    15    1
    18    13    14    1
    19    15    16    1
    20     6     8   ar
    21     9    11    1
    22     9    10    1
    23    11    12    1
@<TRIPOS>MOLECULE
16219006
 44 47 0 0 0
SMALL
GASTEIGER

@<TRIPOS>ATOM
      1 O          -7.0464    0.4303    1.1383 O.2     1  PRO11      -0.2738
      2 O          -9.3274    3.7972   -0.1729 O.2     5  ASP55      -0.2735
      3 O          -6.3344    5.2474    1.0036 O.2     2  VAL22      -0.2738
      4 O          -8.4018    2.4710   -4.7711 O.2     4  TRP44      -0.2738
      5 O          -4.9149    2.5665   -2.5261 O.2     3  LEU33      -0.2738
      6 OD1       -12.4050    2.8041   -1.8062 O.co2   5  ASP55      -0.5497
      7 OD2       -13.1449    4.9596   -1.7966 O.co2   5  ASP55      -0.5497
      8 N          -9.4284    1.6240   -0.8112 N.am    1  PRO11      -0.2884
      9 N          -7.6583    2.5910    1.5807 N.am    2  VAL22      -0.3022
     10 N          -8.6234    3.9286   -3.0116 N.am    5  ASP55      -0.3021
     11 N          -4.9891    3.6490    0.0738 N.am    3  LEU33      -0.3025
     12 N          -5.8987    4.5397   -3.1647 N.am    4  TRP44      -0.3022
     13 NE1        -8.1339    8.1787   -4.3776 N.ar    4  TRP44      -0.3604
     14 CA         -9.3309    1.1241    0.5585 C.3     1  PRO11       0.1023
     15 CB         -9.7358   -0.3490    0.4565 C.3     1  PRO11      -0.0243
     16 CG         -9.4007   -0.7157   -0.9843 C.3     1  PRO11      -0.0350
     17 CD         -9.7445    0.5553   -1.7424 C.3     1  PRO11       0.0156
     18 C          -7.9003    1.3148    1.1145 C.2     1  PRO11       0.2342
     19 C          -9.6015    2.9709   -1.0566 C.2     5  ASP55       0.2369
     20 CA         -6.3435    3.0331    2.0260 C.3     2  VAL22       0.1017
     21 CA         -9.9108    3.4264   -2.5028 C.3     5  ASP55       0.1047
     22 CB         -6.3950    3.6196    3.4536 C.3     2  VAL22      -0.0197
     23 CA         -4.6290    4.4789   -1.0660 C.3     3  LEU33       0.0996
     24 C          -5.8926    4.0998    1.0112 C.2     2  VAL22       0.2342
     25 CB        -10.9418    4.5431   -2.4953 C.3     5  ASP55       0.0138
     26 CA         -6.5467    3.9678   -4.3512 C.3     4  TRP44       0.1034
     27 CB         -3.1098    4.6591   -1.1813 C.3     3  LEU33      -0.0236
     28 CG         -2.4602    5.4111   -0.0002 C.3     3  LEU33      -0.0446
     29 C          -7.9274    3.3428   -4.0431 C.2     4  TRP44       0.2343
     30 CB         -6.6409    4.9936   -5.4932 C.3     4  TRP44       0.0013
     31 C          -5.1575    3.7529   -2.3130 C.2     3  LEU33       0.2340
     32 CG1        -5.0132    4.1241    3.8908 C.3     2  VAL22      -0.0605
     33 CG2        -6.8872    2.5773    4.4640 C.3     2  VAL22      -0.0605
     34 CG         -7.4666    6.2077   -5.1782 C.ar    4  TRP44      -0.0201
     35 CG        -12.2881    4.0489   -1.9799 C.2     5  ASP55       0.0440
     36 CD1        -0.9421    5.4652   -0.1941 C.3     3  LEU33      -0.0626
     37 CD2        -3.0045    6.8311    0.1652 C.3     3  LEU33      -0.0626
     38 CD2        -8.8494    6.3950   -5.5028 C.ar    4  TRP44       0.0029
     39 CD1        -7.0529    7.3489   -4.5159 C.ar    4  TRP44       0.0060
     40 CE2        -9.2396    7.6253   -4.9762 C.ar    4  TRP44       0.0467
     41 CE3        -9.8147    5.6122   -6.1691 C.ar    4  TRP44      -0.0523
     42 CZ2       -10.5507    8.1072   -5.0685 C.ar    4  TRP44      -0.0378
     43 CZ3       -11.1290    6.0802   -6.2738 C.ar    4  TRP44      -0.0611
     44 CH2       -11.4900    7.3076   -5.7253 C.ar    4  TRP44      -0.0598
@<TRIPOS>BOND
     1     1    18    2
     2     2    19    2
     3     3    24    2
     4     4    29    2
     5     5    31    2
     6     6    35   ar
     7     7    35   ar
     8     8    14    1
     9     8    17    1
    10     8    19   am
    11     9    18   am
    12     9    20    1
    13    10    21    1
    14    10    29   am
    15    11    23    1
    16    11    24   am
    17    12    26    1
    18    12    31   am
    19    13    39   ar
    20    13    40   ar
    21    14    15    1
    22    14    18    1
    23    15    16    1
    24    16    17    1
    25    19    21    1
    26    20    22    1
    27    20    24    1
    28    21    25    1
    29    22    32    1
    30    22    33    1
    31    23    27    1
    32    23    31    1
    33    25    35    1
    34    26    29    1
    35    26    30    1
    36    27    28    1
    37    28    36    1
    38    28    37    1
    39    30    34    1
    40    34    38   ar
    41    34    39   ar
    42    38    40   ar
    43    38    41   ar
    44    40    42   ar
    45    41    43   ar
    46    42    44   ar
    47    43    44   ar
@<TRIPOS>MOLECULE
scripts/ET1_17-21_50CONFORMERS.pdb
 47 48 0 0 0
SMALL
GASTEIGER

@<TRIPOS>ATOM
      1  N         -4.5560    0.3400   -2.2290 N.3    17  LEU17      -0.1231
      2  CA        -5.8710   -0.3310   -2.5650 C.3    17  LEU17       0.1693
      3  CB        -5.9840   -1.7530   -2.0080 C.3    17  LEU17       0.0284
      4  CG        -7.2840   -2.5520   -2.1910 C.3    17  LEU17       0.0019
      5  CD1       -7.5520   -2.7200   -3.7010 C.3    17  LEU17       0.0001
      6  CD2       -7.1010   -3.9580   -1.6060 C.3    17  LEU17       0.0001
      7  C         -7.1730    0.4820   -2.1910 C.2    17  LEU17       0.2592
      8  O         -8.0190    0.7440   -3.0080 O.2    17  LEU17      -0.2718
      9  N         -7.2330    1.0000   -0.9610 N.am   18  ASP18      -0.1960
     10  CA        -8.4990    1.6070   -0.4260 C.3    18  ASP18       0.1840
     11  CB        -9.3360    0.5030    0.2000 C.3    18  ASP18       0.1450
     12  CG       -10.5620    1.0400    0.9330 C.2    18  ASP18       0.3671
     13  OD1      -11.5820    1.4390    0.3270 O.co2  18  ASP18      -0.2456
     14  OD2      -10.6020    0.9250    2.1700 O.co2  18  ASP18      -0.2456
     15  C         -8.2080    2.7170    0.6050 C.2    18  ASP18       0.2622
     16  O         -8.8830    3.7460    0.5960 O.2    18  ASP18      -0.2715
     17  N         -7.2370    2.5880    1.5090 N.am   19  ILE19      -0.1963
     18  CA        -6.6850    3.7330    2.2780 C.3    19  ILE19       0.1727
     19  CB        -5.7240    3.4190    3.3350 C.3    19  ILE19       0.0290
     20  CG2       -5.2920    4.6760    4.1320 C.3    19  ILE19       0.0023
     21  CG1       -6.1290    2.2320    4.1470 C.3    19  ILE19       0.0022
     22  CD1       -7.3890    2.5360    5.0150 C.3    19  ILE19       0.0001
     23  C         -6.1350    4.7770    1.3490 C.2    19  ILE19       0.2616
     24  O         -6.6840    5.8170    1.2510 O.2    19  ILE19      -0.2715
     25  N         -5.2150    4.3880    0.4740 N.am   20  ILE20      -0.1963
     26  CA        -4.6870    5.2350   -0.7080 C.3    20  ILE20       0.1727
     27  CB        -3.2240    5.7090   -0.5910 C.3    20  ILE20       0.0290
     28  CG2       -3.3440    6.9610    0.1730 C.3    20  ILE20       0.0023
     29  CG1       -2.2390    4.6130   -0.1520 C.3    20  ILE20       0.0022
     30  CD1       -0.7490    4.9910   -0.4640 C.3    20  ILE20       0.0001
     31  C         -5.0040    4.5020   -1.9670 C.2    20  ILE20       0.2617
     32  O         -4.7480    3.3370   -2.0470 O.2    20  ILE20      -0.2715
     33  N         -5.4580    5.1320   -3.0050 N.am   21  TRP21      -0.1941
     34  CA        -5.7310    4.5710   -4.3980 C.3    21  TRP21       0.1982
     35  CB        -7.1080    4.0630   -4.5610 C.3    21  TRP21       0.0394
     36  CG        -8.2250    4.9670   -4.1900 C.3    21  TRP21       0.0475
     37  CD1       -8.7040    5.2340   -2.9610 C.3    21  TRP21       0.1166
     38  NE1       -9.7700    6.1230   -3.0030 N.pl3  21  TRP21      -0.2376
     39  CE2      -10.0000    6.4240   -4.3510 C.ar   21  TRP21       0.0614
     40  CZ2      -10.9360    7.2380   -5.0320 C.ar   21  TRP21       0.0158
     41  CH2      -10.9170    7.4740   -6.4400 C.ar   21  TRP21       0.0013
     42  CZ3       -9.9650    6.7540   -7.1530 C.ar   21  TRP21      -0.0002
     43  CE3       -9.0360    5.8520   -6.5300 C.ar   21  TRP21      -0.0030
     44  CD2       -8.9440    5.8070   -5.1090 C.ar   21  TRP21      -0.0059
     45  C         -5.5270    5.6500   -5.4640 C.2    21  TRP21       0.3842
     46  O         -5.5010    6.8520   -5.0450 O.co2  21  TRP21      -0.2437
     47  OXT       -5.3450    5.3060   -6.6820 O.co2  21  TRP21      -0.2437
@<TRIPOS>BOND
     1    40    41   ar
     2    40    39   ar
     3    41    42   ar
     4    39    38    1
     5    39    44   ar
     6    42    43   ar
     7    38    37    1
     8    43    44   ar
     9    44    36    1
    10    37    36    1
    11    36    35    1
    12    47    45   ar
    13     5     4    1
    14    35    34    1
    15    45    34    1
    16    45    46   ar
    17    34    33    1
    18     8     7    2
    19     4     6    1
    20     4     3    1
    21     2     3    1
    22     2     1    1
    23     2     7    1
    24     7     9   am
    25    33    31   am
    26    32    31    2
    27    31    26    1
    28     9    10    1
    29    10    11    1
    30    10    15    1
    31    26    27    1
    32    26    25    1
    33    11    12    1
    34    13    12   ar
    35    27    29    1
    36    27    28    1
    37    29    30    1
    38    16    15    2
    39    15    17   am
    40    12    14   ar
    41    25    23   am
    42    17    18    1
    43    23    24    2
    44    23    18    1
    45    18    19    1
    46    19    21    1
    47    19    20    1
    48    21    22    1
