@<TRIPOS>MOLECULE
../1EDN/3STEPMIN_17-21_NOBACKBONE.pdb
 26 23 0 0 0
SMALL
GASTEIGER

@<TRIPOS>ATOM
      1  CB        -6.9230   -0.4370    0.2770 C.3    17  LEU17       0.0000
      2  CG        -6.4950   -1.8450   -0.1910 C.3    17  LEU17       0.0000
      3  CD1       -6.5150   -2.8060    0.9980 C.3    17  LEU17       0.0000
      4  CD2       -7.4310   -2.4140   -1.2600 C.3    17  LEU17       0.0000
      5  CB        -9.0510    3.1310    2.7840 C.3    18  ASP18       0.1258
      6  CG       -10.5470    3.4340    2.8500 C.2    18  ASP18       0.3654
      7  OD1      -11.3300    2.4930    2.5610 O.co2  18  ASP18      -0.2456
      8  OD2      -10.9050    4.5930    3.1470 O.co2  18  ASP18      -0.2456
      9  CB        -4.3960    5.7260    0.0740 C.3    19  ILE19       0.0000
     10  CG2       -3.6150    6.9530   -0.4300 C.3    19  ILE19       0.0000
     11  CG1       -3.7730    5.2100    1.3920 C.3    19  ILE19       0.0000
     12  CD1       -3.8620    6.1700    2.5820 C.3    19  ILE19       0.0000
     13  CB        -6.0900    6.2460   -4.5940 C.3    20  ILE20       0.0000
     14  CG2       -6.7980    6.2490   -5.9680 C.3    20  ILE20       0.0000
     15  CG1       -5.7140    7.6970   -4.2070 C.3    20  ILE20       0.0000
     16  CD1       -4.7810    8.4150   -5.1910 C.3    20  ILE20       0.0000
     17  CB        -9.7020    1.6830   -3.5450 C.3    21  TRP21       0.0327
     18  CG       -10.4970    2.2370   -2.3850 C.ar   21  TRP21      -0.0013
     19  CD1      -10.6860    1.5470   -1.2340 C.ar   21  TRP21       0.0946
     20  NE1      -11.3350    2.3340   -0.3040 N.ar   21  TRP21      -0.2442
     21  CE2      -11.5720    3.5950   -0.7990 C.ar   21  TRP21       0.0810
     22  CZ2      -12.0950    4.7480   -0.2000 C.ar   21  TRP21       0.0191
     23  CH2      -12.2340    5.9130   -0.9670 C.ar   21  TRP21       0.0015
     24  CZ3      -11.8800    5.8920   -2.3260 C.ar   21  TRP21       0.0001
     25  CE3      -11.3480    4.7280   -2.9100 C.ar   21  TRP21       0.0012
     26  CD2      -11.1270    3.5500   -2.1550 C.ar   21  TRP21       0.0152
@<TRIPOS>BOND
     1    14    13    1
     2    16    15    1
     3    13    15    1
     4    17    18    1
     5    25    24   ar
     6    25    26   ar
     7    18    26   ar
     8    18    19   ar
     9    24    23   ar
    10    26    21   ar
    11     4     2    1
    12    19    20   ar
    13    23    22   ar
    14    21    20   ar
    15    21    22   ar
    16    10     9    1
    17     2     1    1
    18     2     3    1
    19     9    11    1
    20    11    12    1
    21     7     6   ar
    22     5     6    1
    23     6     8   ar
@<TRIPOS>MOLECULE
*****
 67 70 0 0 0
SMALL
GASTEIGER

@<TRIPOS>ATOM
      1 C          -6.0019    8.3071   -5.2171 C.ar    1  LIG11       0.0483
      2 C          -4.9527    7.4396   -5.0237 C.ar    1  LIG11       0.0543
      3 C          -5.2419    6.3152   -4.2873 C.ar    1  LIG11       0.0483
      4 N          -6.4663    6.0498   -3.7860 N.ar    1  LIG11      -0.2022
      5 N          -7.2462    8.0943   -4.7345 N.ar    1  LIG11      -0.2022
      6 C         -13.6402    6.3134    1.3390 C.ar    1  LIG11      -0.0504
      7 C         -14.0683    5.0410    0.9552 C.ar    1  LIG11      -0.0583
      8 C         -13.3905    4.3365   -0.0447 C.ar    1  LIG11      -0.0535
      9 C         -12.2537    4.8685   -0.6796 C.ar    1  LIG11      -0.0094
     10 C         -11.8556    6.1623   -0.3021 C.ar    1  LIG11      -0.0535
     11 C         -12.5433    6.8790    0.6840 C.ar    1  LIG11      -0.0583
     12 C          -7.0990    0.0915   -0.0833 C.ar    1  LIG11      -0.0561
     13 C          -7.9994    1.1537    0.0625 C.ar    1  LIG11      -0.0348
     14 C          -9.1704    0.9635    0.7891 C.ar    1  LIG11       0.1086
     15 C          -9.4434   -0.2705    1.3766 C.ar    1  LIG11      -0.0348
     16 C          -8.5391   -1.3268    1.2207 C.ar    1  LIG11      -0.0561
     17 C          -6.3475   -2.3436    0.3423 C.3     1  LIG11       0.0132
     18 C          -7.3378   -1.1662    0.5037 C.ar    1  LIG11      -0.0394
     19 C          -6.8489   -3.2280   -0.8170 C.3     1  LIG11      -0.0537
     20 C          -4.8755   -1.8924    0.0809 C.3     1  LIG11       0.0533
     21 C          -6.2947   -3.2067    1.6297 C.3     1  LIG11      -0.0537
     22 O          -4.6432   -1.4130   -1.2417 O.3     1  LIG11      -0.3942
     23 S         -10.3197    2.3090    1.0111 S.O2    1  LIG11       0.0735
     24 O          -9.5940    3.5474    0.8284 O.2     1  LIG11      -0.1499
     25 O         -11.0449    2.0229    2.2311 O.2     1  LIG11      -0.1499
     26 N         -11.3950    2.0323   -0.2771 N.pl3   1  LIG11      -0.1988
     27 C         -11.4758    4.0821   -1.6626 C.ar    1  LIG11       0.0847
     28 C         -11.0585    4.5641   -2.8988 C.ar    1  LIG11       0.2276
     29 N         -10.3554    3.8432   -3.7989 N.ar    1  LIG11      -0.2008
     30 C         -10.0381    2.5954   -3.4477 C.ar    1  LIG11       0.1219
     31 N         -10.3881    1.9919   -2.3103 N.ar    1  LIG11      -0.2186
     32 C         -11.0880    2.7591   -1.4599 C.ar    1  LIG11       0.1524
     33 C         -14.3406    7.0672    2.4285 C.3     1  LIG11      -0.0397
     34 O         -11.4649    5.8360   -3.2599 O.3     1  LIG11      -0.4724
     35 C         -10.8691    6.3897   -4.4375 C.3     1  LIG11       0.1252
     36 C          -9.7533    7.3696   -4.0727 C.3     1  LIG11       0.1267
     37 O          -8.6541    6.6449   -3.5221 O.3     1  LIG11      -0.4590
     38 C          -7.4233    6.9541   -4.0439 C.ar    1  LIG11       0.3180
     39 BR         -3.2424    7.7638   -5.7244 Br      1  LIG11      -0.0472
     40 H          -5.8820    9.2264   -5.7833 H       1  LIG11       0.0843
     41 H          -4.4875    5.5662   -4.0672 H       1  LIG11       0.0843
     42 H         -14.9196    4.5745    1.4458 H       1  LIG11       0.0620
     43 H         -13.7507    3.3418   -0.3015 H       1  LIG11       0.0624
     44 H         -10.9779    6.6204   -0.7551 H       1  LIG11       0.0624
     45 H         -12.1965    7.8738    0.9549 H       1  LIG11       0.0620
     46 H          -6.2015    0.2792   -0.6709 H       1  LIG11       0.0621
     47 H          -7.7769    2.1149   -0.3978 H       1  LIG11       0.0637
     48 H         -10.3496   -0.4228    1.9599 H       1  LIG11       0.0637
     49 H          -8.8019   -2.2768    1.6781 H       1  LIG11       0.0621
     50 H          -7.8358   -3.6536   -0.6001 H       1  LIG11       0.0239
     51 H          -6.1631   -4.0634   -0.9994 H       1  LIG11       0.0239
     52 H          -6.9438   -2.6600   -1.7498 H       1  LIG11       0.0239
     53 H          -4.1792   -2.7256    0.2325 H       1  LIG11       0.0566
     54 H          -4.5823   -1.1025    0.7827 H       1  LIG11       0.0566
     55 H          -6.0572   -2.5953    2.5079 H       1  LIG11       0.0239
     56 H          -5.5311   -3.9895    1.5505 H       1  LIG11       0.0239
     57 H          -7.2390   -3.7267    1.8252 H       1  LIG11       0.0239
     58 H          -4.6812   -2.1750   -1.8439 H       1  LIG11       0.2094
     59 H         -11.3687    1.0429   -0.5266 H       1  LIG11       0.1753
     60 H          -9.4502    2.0194   -4.1539 H       1  LIG11       0.1049
     61 H         -15.0359    6.4230    2.9770 H       1  LIG11       0.0278
     62 H         -14.9052    7.9036    2.0069 H       1  LIG11       0.0278
     63 H         -13.6127    7.4512    3.1517 H       1  LIG11       0.0278
     64 H         -11.6641    6.9462   -4.9455 H       1  LIG11       0.0731
     65 H         -10.5135    5.6417   -5.1544 H       1  LIG11       0.0731
     66 H         -10.1022    8.0713   -3.3063 H       1  LIG11       0.0732
     67 H          -9.5062    7.9363   -4.9774 H       1  LIG11       0.0732
@<TRIPOS>BOND
     1     1     2   ar
     2     2     3   ar
     3     2    39    1
     4     3     4   ar
     5     4    38   ar
     6     5     1   ar
     7     6     7   ar
     8     6    33    1
     9     7     8   ar
    10     8     9   ar
    11     9    10   ar
    12    10    11   ar
    13    11     6   ar
    14    12    13   ar
    15    13    14   ar
    16    14    15   ar
    17    15    16   ar
    18    16    18   ar
    19    17    18    1
    20    17    21    1
    21    17    20    1
    22    17    19    1
    23    18    12   ar
    24    20    22    1
    25    23    26    1
    26    23    25    2
    27    23    24    2
    28    23    14    1
    29    26    32    1
    30    27    28   ar
    31    27     9    1
    32    28    29   ar
    33    29    30   ar
    34    30    31   ar
    35    31    32   ar
    36    32    27   ar
    37    34    35    1
    38    34    28    1
    39    35    36    1
    40    36    37    1
    41    37    38    1
    42    38     5   ar
    43     1    40    1
    44     3    41    1
    45     7    42    1
    46     8    43    1
    47    10    44    1
    48    11    45    1
    49    12    46    1
    50    13    47    1
    51    15    48    1
    52    16    49    1
    53    19    50    1
    54    19    51    1
    55    19    52    1
    56    20    53    1
    57    20    54    1
    58    21    55    1
    59    21    56    1
    60    21    57    1
    61    22    58    1
    62    26    59    1
    63    30    60    1
    64    33    61    1
    65    33    62    1
    66    33    63    1
    67    35    64    1
    68    35    65    1
    69    36    66    1
    70    36    67    1
@<TRIPOS>MOLECULE
../1EDN/3STEPMIN_17-21.pdb
 47 48 0 0 0
SMALL
GASTEIGER

@<TRIPOS>ATOM
      1  N         -5.4290    0.8830   -1.1740 N.3    17  LEU17      -0.1231
      2  CA        -6.8230    0.6710   -0.7980 C.3    17  LEU17       0.1693
      3  CB        -6.9230   -0.4370    0.2770 C.3    17  LEU17       0.0284
      4  CG        -6.4950   -1.8450   -0.1910 C.3    17  LEU17       0.0019
      5  CD1       -6.5150   -2.8060    0.9980 C.3    17  LEU17       0.0001
      6  CD2       -7.4310   -2.4140   -1.2600 C.3    17  LEU17       0.0001
      7  C         -7.3990    2.0370   -0.3760 C.2    17  LEU17       0.2592
      8  O         -7.4670    2.9330   -1.2040 O.2    17  LEU17      -0.2718
      9  N         -7.7380    2.2560    0.8970 N.am   18  ASP18      -0.1960
     10  CA        -8.5130    3.4280    1.3730 C.3    18  ASP18       0.1840
     11  CB        -9.0510    3.1310    2.7840 C.3    18  ASP18       0.1450
     12  CG       -10.5470    3.4340    2.8500 C.2    18  ASP18       0.3671
     13  OD1      -11.3300    2.4930    2.5610 O.co2  18  ASP18      -0.2456
     14  OD2      -10.9050    4.5930    3.1470 O.co2  18  ASP18      -0.2456
     15  C         -7.8270    4.8120    1.2910 C.2    18  ASP18       0.2622
     16  O         -8.3890    5.8210    1.7350 O.2    18  ASP18      -0.2715
     17  N         -6.6250    4.8510    0.7010 N.am   19  ILE19      -0.1963
     18  CA        -5.9180    6.0210    0.1680 C.3    19  ILE19       0.1727
     19  CB        -4.3960    5.7260    0.0740 C.3    19  ILE19       0.0290
     20  CG2       -3.6150    6.9530   -0.4300 C.3    19  ILE19       0.0023
     21  CG1       -3.7730    5.2100    1.3920 C.3    19  ILE19       0.0022
     22  CD1       -3.8620    6.1700    2.5820 C.3    19  ILE19       0.0001
     23  C         -6.4970    6.4050   -1.2110 C.2    19  ILE19       0.2616
     24  O         -7.0070    7.5130   -1.3720 O.2    19  ILE19      -0.2715
     25  N         -6.3950    5.4980   -2.1940 N.am   20  ILE20      -0.1963
     26  CA        -6.9990    5.5490   -3.5400 C.3    20  ILE20       0.1727
     27  CB        -6.0900    6.2460   -4.5940 C.3    20  ILE20       0.0290
     28  CG2       -6.7980    6.2490   -5.9680 C.3    20  ILE20       0.0023
     29  CG1       -5.7140    7.6970   -4.2070 C.3    20  ILE20       0.0022
     30  CD1       -4.7810    8.4150   -5.1910 C.3    20  ILE20       0.0001
     31  C         -7.3180    4.1070   -3.9880 C.2    20  ILE20       0.2617
     32  O         -6.4020    3.3070   -4.2100 O.2    20  ILE20      -0.2715
     33  N         -8.6100    3.8210   -4.1620 N.am   21  TRP21      -0.1938
     34  CA        -9.2240    2.5950   -4.7020 C.3    21  TRP21       0.2021
     35  CB        -9.7020    1.6830   -3.5450 C.3    21  TRP21       0.0612
     36  CG       -10.4970    2.2370   -2.3850 C.ar   21  TRP21       0.0007
     37  CD1      -10.6860    1.5470   -1.2340 C.ar   21  TRP21       0.0946
     38  NE1      -11.3350    2.3340   -0.3040 N.ar   21  TRP21      -0.2442
     39  CE2      -11.5720    3.5950   -0.7990 C.ar   21  TRP21       0.0810
     40  CZ2      -12.0950    4.7480   -0.2000 C.ar   21  TRP21       0.0191
     41  CH2      -12.2340    5.9130   -0.9670 C.ar   21  TRP21       0.0015
     42  CZ3      -11.8800    5.8920   -2.3260 C.ar   21  TRP21       0.0001
     43  CE3      -11.3480    4.7280   -2.9100 C.ar   21  TRP21       0.0012
     44  CD2      -11.1270    3.5500   -2.1550 C.ar   21  TRP21       0.0152
     45  C        -10.3230    2.8760   -5.7330 C.2    21  TRP21       0.3845
     46  O        -11.0800    1.9620   -6.0950 O.co2  21  TRP21      -0.2437
     47  OXT      -10.4270    4.0430   -6.2080 O.co2  21  TRP21      -0.2437
@<TRIPOS>BOND
     1    47    45   ar
     2    46    45   ar
     3    28    27    1
     4    45    34    1
     5    30    29    1
     6    34    33    1
     7    34    35    1
     8    27    29    1
     9    27    26    1
    10    32    31    2
    11    33    31   am
    12    31    26    1
    13    35    36    1
    14    26    25    1
    15    43    42   ar
    16    43    44   ar
    17    36    44   ar
    18    36    37   ar
    19    42    41   ar
    20    25    23   am
    21    44    39   ar
    22    24    23    2
    23     6     4    1
    24    37    38   ar
    25    23    18    1
    26     8     7    2
    27     1     2    1
    28    41    40   ar
    29    39    38   ar
    30    39    40   ar
    31     2     7    1
    32     2     3    1
    33    20    19    1
    34     7     9   am
    35     4     3    1
    36     4     5    1
    37    19    18    1
    38    19    21    1
    39    18    17    1
    40    17    15   am
    41     9    10    1
    42    15    10    1
    43    15    16    2
    44    10    11    1
    45    21    22    1
    46    13    12   ar
    47    11    12    1
    48    12    14   ar
