@<TRIPOS>MOLECULE
../1EDN/3STEPMIN_17-21_NOBACKBONE.pdb
 26 23 0 0 0
SMALL
GASTEIGER

@<TRIPOS>ATOM
      1  CB        -6.9230   -0.4370    0.2770 C.3    17  LEU17       0.0000
      2  CG        -6.4950   -1.8450   -0.1910 C.3    17  LEU17       0.0000
      3  CD1       -6.5150   -2.8060    0.9980 C.3    17  LEU17       0.0000
      4  CD2       -7.4310   -2.4140   -1.2600 C.3    17  LEU17       0.0000
      5  CB        -9.0510    3.1310    2.7840 C.3    18  ASP18       0.1258
      6  CG       -10.5470    3.4340    2.8500 C.2    18  ASP18       0.3654
      7  OD1      -11.3300    2.4930    2.5610 O.co2  18  ASP18      -0.2456
      8  OD2      -10.9050    4.5930    3.1470 O.co2  18  ASP18      -0.2456
      9  CB        -4.3960    5.7260    0.0740 C.3    19  ILE19       0.0000
     10  CG2       -3.6150    6.9530   -0.4300 C.3    19  ILE19       0.0000
     11  CG1       -3.7730    5.2100    1.3920 C.3    19  ILE19       0.0000
     12  CD1       -3.8620    6.1700    2.5820 C.3    19  ILE19       0.0000
     13  CB        -6.0900    6.2460   -4.5940 C.3    20  ILE20       0.0000
     14  CG2       -6.7980    6.2490   -5.9680 C.3    20  ILE20       0.0000
     15  CG1       -5.7140    7.6970   -4.2070 C.3    20  ILE20       0.0000
     16  CD1       -4.7810    8.4150   -5.1910 C.3    20  ILE20       0.0000
     17  CB        -9.7020    1.6830   -3.5450 C.3    21  TRP21       0.0327
     18  CG       -10.4970    2.2370   -2.3850 C.ar   21  TRP21      -0.0013
     19  CD1      -10.6860    1.5470   -1.2340 C.ar   21  TRP21       0.0946
     20  NE1      -11.3350    2.3340   -0.3040 N.ar   21  TRP21      -0.2442
     21  CE2      -11.5720    3.5950   -0.7990 C.ar   21  TRP21       0.0810
     22  CZ2      -12.0950    4.7480   -0.2000 C.ar   21  TRP21       0.0191
     23  CH2      -12.2340    5.9130   -0.9670 C.ar   21  TRP21       0.0015
     24  CZ3      -11.8800    5.8920   -2.3260 C.ar   21  TRP21       0.0001
     25  CE3      -11.3480    4.7280   -2.9100 C.ar   21  TRP21       0.0012
     26  CD2      -11.1270    3.5500   -2.1550 C.ar   21  TRP21       0.0152
@<TRIPOS>BOND
     1    14    13    1
     2    16    15    1
     3    13    15    1
     4    17    18    1
     5    25    24   ar
     6    25    26   ar
     7    18    26   ar
     8    18    19   ar
     9    24    23   ar
    10    26    21   ar
    11     4     2    1
    12    19    20   ar
    13    23    22   ar
    14    21    20   ar
    15    21    22   ar
    16    10     9    1
    17     2     1    1
    18     2     3    1
    19     9    11    1
    20    11    12    1
    21     7     6   ar
    22     5     6    1
    23     6     8   ar
@<TRIPOS>MOLECULE
159594
 75 78 0 0 0
SMALL
GASTEIGER

@<TRIPOS>ATOM
      1 O          -9.9835    1.1801   -5.4265 O.co2   1  LIG11      -0.5493
      2 O         -11.8835    1.0168   -4.1690 O.co2   1  LIG11      -0.5493
      3 O          -5.3798   -0.4841    0.5715 O.3     1  LIG11      -0.4526
      4 O          -5.6137    3.5870   -2.2268 O.2     1  LIG11      -0.2697
      5 O          -6.5336   -2.5540    1.0185 O.3     1  LIG11      -0.4526
      6 O         -13.0682    5.4283    0.6204 O.3     1  LIG11      -0.4951
      7 N          -8.1913    2.9352   -2.8487 N.4     1  LIG11       0.2481
      8 N          -5.7281    5.8410   -2.6589 N.am    1  LIG11      -0.2971
      9 C          -9.8140    1.1932   -3.0900 C.3     1  LIG11       0.0574
     10 C          -8.4068    0.6057   -3.2893 C.3     1  LIG11       0.0378
     11 C          -9.6802    2.7180   -3.0847 C.3     1  LIG11       0.0143
     12 C          -7.5742    1.8282   -3.6809 C.3     1  LIG11      -0.0230
     13 C          -7.9339   -0.1810   -2.0661 C.ar    1  LIG11      -0.0347
     14 C         -10.5592    3.4424   -2.0833 C.ar    1  LIG11       0.0011
     15 C          -7.6899    4.3277   -3.1622 C.3     1  LIG11       0.0468
     16 C         -10.6451    1.0827   -4.3546 C.2     1  LIG11       0.0513
     17 C          -6.8317    0.1791   -1.2714 C.ar    1  LIG11      -0.0125
     18 C          -6.2540    4.5533   -2.6521 C.2     1  LIG11       0.2608
     19 C          -8.6064   -1.3982   -1.7757 C.ar    1  LIG11      -0.0544
     20 C         -11.5552    4.3080   -2.5707 C.ar    1  LIG11      -0.0498
     21 C         -10.4487    3.2706   -0.6982 C.ar    1  LIG11      -0.0498
     22 C          -6.4421   -0.6771   -0.2577 C.ar    1  LIG11       0.1665
     23 C          -8.1923   -2.2411   -0.7376 C.ar    1  LIG11      -0.0159
     24 C          -7.0985   -1.8547   -0.0008 C.ar    1  LIG11       0.1662
     25 C         -12.4084    4.9968   -1.7045 C.ar    1  LIG11      -0.0195
     26 C         -11.3054    3.9641    0.1665 C.ar    1  LIG11      -0.0195
     27 C          -4.4114    6.0443   -2.0338 C.3     1  LIG11       0.0148
     28 C          -6.4466    7.0271   -3.1418 C.3     1  LIG11       0.0148
     29 C         -12.2901    4.8241   -0.3289 C.ar    1  LIG11       0.1201
     30 C          -4.4534    6.2345   -0.5116 C.3     1  LIG11      -0.0374
     31 C          -5.7367    7.8409   -4.2343 C.3     1  LIG11      -0.0374
     32 C          -5.4153   -1.7037    1.3435 C.3     1  LIG11       0.2332
     33 C          -4.5817    4.9206    0.2639 C.3     1  LIG11      -0.0545
     34 C          -5.4799    7.1003   -5.5504 C.3     1  LIG11      -0.0545
     35 C          -4.2732    5.1004    1.7419 C.3     1  LIG11      -0.0652
     36 C          -4.2869    6.1569   -5.5171 C.3     1  LIG11      -0.0652
     37 C         -14.2202    6.1221    0.1506 C.3     1  LIG11       0.0788
     38 H          -7.9743    2.7366   -1.8657 H       1  LIG11       0.2045
     39 H         -10.3538    0.7846   -2.2292 H       1  LIG11       0.0427
     40 H          -8.3601   -0.1118   -4.1196 H       1  LIG11       0.0409
     41 H          -9.8483    3.1902   -4.0638 H       1  LIG11       0.0911
     42 H          -7.7027    2.1043   -4.7335 H       1  LIG11       0.0821
     43 H          -6.5076    1.7445   -3.4710 H       1  LIG11       0.0821
     44 H          -7.7415    4.4731   -4.2449 H       1  LIG11       0.0913
     45 H          -8.3573    5.0163   -2.6375 H       1  LIG11       0.0913
     46 H          -6.2437    1.0758   -1.4280 H       1  LIG11       0.0658
     47 H          -9.4562   -1.7074   -2.3871 H       1  LIG11       0.0622
     48 H         -11.7060    4.4263   -3.6444 H       1  LIG11       0.0623
     49 H          -9.7305    2.5756   -0.2710 H       1  LIG11       0.0623
     50 H          -8.7041   -3.1756   -0.5358 H       1  LIG11       0.0655
     51 H         -13.1647    5.6407   -2.1410 H       1  LIG11       0.0654
     52 H         -11.2265    3.8103    1.2408 H       1  LIG11       0.0654
     53 H          -3.7623    5.1977   -2.2876 H       1  LIG11       0.0464
     54 H          -3.9434    6.9257   -2.4795 H       1  LIG11       0.0464
     55 H          -7.4324    6.7499   -3.5217 H       1  LIG11       0.0464
     56 H          -6.6199    7.6688   -2.2701 H       1  LIG11       0.0464
     57 H          -3.5142    6.7184   -0.2150 H       1  LIG11       0.0280
     58 H          -5.2654    6.9148   -0.2296 H       1  LIG11       0.0280
     59 H          -6.3862    8.6966   -4.4624 H       1  LIG11       0.0280
     60 H          -4.8030    8.2753   -3.8623 H       1  LIG11       0.0280
     61 H          -4.4870   -2.2591    1.1630 H       1  LIG11       0.1166
     62 H          -5.4680   -1.4445    2.4068 H       1  LIG11       0.1166
     63 H          -5.5975    4.5238    0.1644 H       1  LIG11       0.0263
     64 H          -3.8912    4.1734   -0.1447 H       1  LIG11       0.0263
     65 H          -6.3770    6.5563   -5.8658 H       1  LIG11       0.0263
     66 H          -5.2817    7.8536   -6.3234 H       1  LIG11       0.0263
     67 H          -4.9592    5.8165    2.2034 H       1  LIG11       0.0230
     68 H          -4.3723    4.1440    2.2654 H       1  LIG11       0.0230
     69 H          -3.2486    5.4579    1.8867 H       1  LIG11       0.0230
     70 H          -4.4979    5.2569   -4.9355 H       1  LIG11       0.0230
     71 H          -4.0374    5.8329   -6.5329 H       1  LIG11       0.0230
     72 H          -3.4035    6.6473   -5.0958 H       1  LIG11       0.0230
     73 H         -14.7929    6.4521    1.0227 H       1  LIG11       0.0660
     74 H         -13.9345    7.0140   -0.4168 H       1  LIG11       0.0660
     75 H         -14.8674    5.4675   -0.4436 H       1  LIG11       0.0660
@<TRIPOS>BOND
     1     1    16   ar
     2     2    16   ar
     3     3    22    1
     4     3    32    1
     5     4    18    2
     6     5    24    1
     7     5    32    1
     8     6    29    1
     9     6    37    1
    10     7    11    1
    11     7    12    1
    12     7    15    1
    13     8    18   am
    14     8    27    1
    15     8    28    1
    16     9    10    1
    17     9    11    1
    18     9    16    1
    19    10    12    1
    20    10    13    1
    21    11    14    1
    22    13    17   ar
    23    13    19   ar
    24    14    20   ar
    25    14    21   ar
    26    15    18    1
    27    17    22   ar
    28    19    23   ar
    29    20    25   ar
    30    21    26   ar
    31    22    24   ar
    32    23    24   ar
    33    25    29   ar
    34    26    29   ar
    35    27    30    1
    36    28    31    1
    37    30    33    1
    38    31    34    1
    39    33    35    1
    40    34    36    1
    41     7    38    1
    42     9    39    1
    43    10    40    1
    44    11    41    1
    45    12    42    1
    46    12    43    1
    47    15    44    1
    48    15    45    1
    49    17    46    1
    50    19    47    1
    51    20    48    1
    52    21    49    1
    53    23    50    1
    54    25    51    1
    55    26    52    1
    56    27    53    1
    57    27    54    1
    58    28    55    1
    59    28    56    1
    60    30    57    1
    61    30    58    1
    62    31    59    1
    63    31    60    1
    64    32    61    1
    65    32    62    1
    66    33    63    1
    67    33    64    1
    68    34    65    1
    69    34    66    1
    70    35    67    1
    71    35    68    1
    72    35    69    1
    73    36    70    1
    74    36    71    1
    75    36    72    1
    76    37    73    1
    77    37    74    1
    78    37    75    1
@<TRIPOS>MOLECULE
../1EDN/3STEPMIN_17-21.pdb
 47 48 0 0 0
SMALL
GASTEIGER

@<TRIPOS>ATOM
      1  N         -5.4290    0.8830   -1.1740 N.3    17  LEU17      -0.1231
      2  CA        -6.8230    0.6710   -0.7980 C.3    17  LEU17       0.1693
      3  CB        -6.9230   -0.4370    0.2770 C.3    17  LEU17       0.0284
      4  CG        -6.4950   -1.8450   -0.1910 C.3    17  LEU17       0.0019
      5  CD1       -6.5150   -2.8060    0.9980 C.3    17  LEU17       0.0001
      6  CD2       -7.4310   -2.4140   -1.2600 C.3    17  LEU17       0.0001
      7  C         -7.3990    2.0370   -0.3760 C.2    17  LEU17       0.2592
      8  O         -7.4670    2.9330   -1.2040 O.2    17  LEU17      -0.2718
      9  N         -7.7380    2.2560    0.8970 N.am   18  ASP18      -0.1960
     10  CA        -8.5130    3.4280    1.3730 C.3    18  ASP18       0.1840
     11  CB        -9.0510    3.1310    2.7840 C.3    18  ASP18       0.1450
     12  CG       -10.5470    3.4340    2.8500 C.2    18  ASP18       0.3671
     13  OD1      -11.3300    2.4930    2.5610 O.co2  18  ASP18      -0.2456
     14  OD2      -10.9050    4.5930    3.1470 O.co2  18  ASP18      -0.2456
     15  C         -7.8270    4.8120    1.2910 C.2    18  ASP18       0.2622
     16  O         -8.3890    5.8210    1.7350 O.2    18  ASP18      -0.2715
     17  N         -6.6250    4.8510    0.7010 N.am   19  ILE19      -0.1963
     18  CA        -5.9180    6.0210    0.1680 C.3    19  ILE19       0.1727
     19  CB        -4.3960    5.7260    0.0740 C.3    19  ILE19       0.0290
     20  CG2       -3.6150    6.9530   -0.4300 C.3    19  ILE19       0.0023
     21  CG1       -3.7730    5.2100    1.3920 C.3    19  ILE19       0.0022
     22  CD1       -3.8620    6.1700    2.5820 C.3    19  ILE19       0.0001
     23  C         -6.4970    6.4050   -1.2110 C.2    19  ILE19       0.2616
     24  O         -7.0070    7.5130   -1.3720 O.2    19  ILE19      -0.2715
     25  N         -6.3950    5.4980   -2.1940 N.am   20  ILE20      -0.1963
     26  CA        -6.9990    5.5490   -3.5400 C.3    20  ILE20       0.1727
     27  CB        -6.0900    6.2460   -4.5940 C.3    20  ILE20       0.0290
     28  CG2       -6.7980    6.2490   -5.9680 C.3    20  ILE20       0.0023
     29  CG1       -5.7140    7.6970   -4.2070 C.3    20  ILE20       0.0022
     30  CD1       -4.7810    8.4150   -5.1910 C.3    20  ILE20       0.0001
     31  C         -7.3180    4.1070   -3.9880 C.2    20  ILE20       0.2617
     32  O         -6.4020    3.3070   -4.2100 O.2    20  ILE20      -0.2715
     33  N         -8.6100    3.8210   -4.1620 N.am   21  TRP21      -0.1938
     34  CA        -9.2240    2.5950   -4.7020 C.3    21  TRP21       0.2021
     35  CB        -9.7020    1.6830   -3.5450 C.3    21  TRP21       0.0612
     36  CG       -10.4970    2.2370   -2.3850 C.ar   21  TRP21       0.0007
     37  CD1      -10.6860    1.5470   -1.2340 C.ar   21  TRP21       0.0946
     38  NE1      -11.3350    2.3340   -0.3040 N.ar   21  TRP21      -0.2442
     39  CE2      -11.5720    3.5950   -0.7990 C.ar   21  TRP21       0.0810
     40  CZ2      -12.0950    4.7480   -0.2000 C.ar   21  TRP21       0.0191
     41  CH2      -12.2340    5.9130   -0.9670 C.ar   21  TRP21       0.0015
     42  CZ3      -11.8800    5.8920   -2.3260 C.ar   21  TRP21       0.0001
     43  CE3      -11.3480    4.7280   -2.9100 C.ar   21  TRP21       0.0012
     44  CD2      -11.1270    3.5500   -2.1550 C.ar   21  TRP21       0.0152
     45  C        -10.3230    2.8760   -5.7330 C.2    21  TRP21       0.3845
     46  O        -11.0800    1.9620   -6.0950 O.co2  21  TRP21      -0.2437
     47  OXT      -10.4270    4.0430   -6.2080 O.co2  21  TRP21      -0.2437
@<TRIPOS>BOND
     1    47    45   ar
     2    46    45   ar
     3    28    27    1
     4    45    34    1
     5    30    29    1
     6    34    33    1
     7    34    35    1
     8    27    29    1
     9    27    26    1
    10    32    31    2
    11    33    31   am
    12    31    26    1
    13    35    36    1
    14    26    25    1
    15    43    42   ar
    16    43    44   ar
    17    36    44   ar
    18    36    37   ar
    19    42    41   ar
    20    25    23   am
    21    44    39   ar
    22    24    23    2
    23     6     4    1
    24    37    38   ar
    25    23    18    1
    26     8     7    2
    27     1     2    1
    28    41    40   ar
    29    39    38   ar
    30    39    40   ar
    31     2     7    1
    32     2     3    1
    33    20    19    1
    34     7     9   am
    35     4     3    1
    36     4     5    1
    37    19    18    1
    38    19    21    1
    39    18    17    1
    40    17    15   am
    41     9    10    1
    42    15    10    1
    43    15    16    2
    44    10    11    1
    45    21    22    1
    46    13    12   ar
    47    11    12    1
    48    12    14   ar
