@<TRIPOS>MOLECULE
../1EDN/3STEPMIN_17-21_NOBACKBONE.pdb
 26 23 0 0 0
SMALL
GASTEIGER

@<TRIPOS>ATOM
      1  CB        -6.9230   -0.4370    0.2770 C.3    17  LEU17       0.0000
      2  CG        -6.4950   -1.8450   -0.1910 C.3    17  LEU17       0.0000
      3  CD1       -6.5150   -2.8060    0.9980 C.3    17  LEU17       0.0000
      4  CD2       -7.4310   -2.4140   -1.2600 C.3    17  LEU17       0.0000
      5  CB        -9.0510    3.1310    2.7840 C.3    18  ASP18       0.1258
      6  CG       -10.5470    3.4340    2.8500 C.2    18  ASP18       0.3654
      7  OD1      -11.3300    2.4930    2.5610 O.co2  18  ASP18      -0.2456
      8  OD2      -10.9050    4.5930    3.1470 O.co2  18  ASP18      -0.2456
      9  CB        -4.3960    5.7260    0.0740 C.3    19  ILE19       0.0000
     10  CG2       -3.6150    6.9530   -0.4300 C.3    19  ILE19       0.0000
     11  CG1       -3.7730    5.2100    1.3920 C.3    19  ILE19       0.0000
     12  CD1       -3.8620    6.1700    2.5820 C.3    19  ILE19       0.0000
     13  CB        -6.0900    6.2460   -4.5940 C.3    20  ILE20       0.0000
     14  CG2       -6.7980    6.2490   -5.9680 C.3    20  ILE20       0.0000
     15  CG1       -5.7140    7.6970   -4.2070 C.3    20  ILE20       0.0000
     16  CD1       -4.7810    8.4150   -5.1910 C.3    20  ILE20       0.0000
     17  CB        -9.7020    1.6830   -3.5450 C.3    21  TRP21       0.0327
     18  CG       -10.4970    2.2370   -2.3850 C.ar   21  TRP21      -0.0013
     19  CD1      -10.6860    1.5470   -1.2340 C.ar   21  TRP21       0.0946
     20  NE1      -11.3350    2.3340   -0.3040 N.ar   21  TRP21      -0.2442
     21  CE2      -11.5720    3.5950   -0.7990 C.ar   21  TRP21       0.0810
     22  CZ2      -12.0950    4.7480   -0.2000 C.ar   21  TRP21       0.0191
     23  CH2      -12.2340    5.9130   -0.9670 C.ar   21  TRP21       0.0015
     24  CZ3      -11.8800    5.8920   -2.3260 C.ar   21  TRP21       0.0001
     25  CE3      -11.3480    4.7280   -2.9100 C.ar   21  TRP21       0.0012
     26  CD2      -11.1270    3.5500   -2.1550 C.ar   21  TRP21       0.0152
@<TRIPOS>BOND
     1    14    13    1
     2    16    15    1
     3    13    15    1
     4    17    18    1
     5    25    24   ar
     6    25    26   ar
     7    18    26   ar
     8    18    19   ar
     9    24    23   ar
    10    26    21   ar
    11     4     2    1
    12    19    20   ar
    13    23    22   ar
    14    21    20   ar
    15    21    22   ar
    16    10     9    1
    17     2     1    1
    18     2     3    1
    19     9    11    1
    20    11    12    1
    21     7     6   ar
    22     5     6    1
    23     6     8   ar
@<TRIPOS>MOLECULE
123882
 117 122 0 0 0
SMALL
GASTEIGER

@<TRIPOS>ATOM
      1 S          -7.3451   -1.1572    0.4881 S.2     3  UNK33      -0.0993
      2 O          -5.6289    6.6347   -5.2591 O.2     1  UNK11      -0.2755
      3 O         -12.3327    3.2477    2.5271 O.2     4  LEU44      -0.2738
      4 O          -6.9868    4.0178   -3.8075 O.2     1  UNK11      -0.2737
      5 O          -9.9783    4.1308   -0.7453 O.2     5  TRP55      -0.2738
      6 O         -10.4912    5.7567   -4.2693 O.2     6  ASP66      -0.2738
      7 O          -8.0878    0.7731    3.1783 O.2     3  UNK33      -0.2734
      8 O          -6.9596    4.2293    0.8441 O.2     2  ASP22      -0.2737
      9 OD1       -14.0123    6.3536   -1.0398 O.co2   6  ASP66      -0.5497
     10 OD2       -13.5887    8.6038   -1.0850 O.co2   6  ASP66      -0.5497
     11 OD1        -3.4880    5.2745    1.0939 O.co2   2  ASP22      -0.5497
     12 OD2        -4.8094    6.5646   -0.2650 O.co2   2  ASP22      -0.5497
     13 N          -4.9595    8.6570   -4.4557 N.am    1  UNK11      -0.2984
     14 N          -3.6714   11.1131   -5.3298 N.pl3   1  UNK11      -0.3269
     15 N          -8.9758    6.4173   -2.6710 N.am    1  UNK11      -0.3020
     16 N         -11.1907    2.3206    0.7750 N.am    5  TRP55      -0.3022
     17 N          -8.8236    2.5140    1.9010 N.am    4  LEU44      -0.3022
     18 N         -11.9110    4.8885   -1.7173 N.am    6  ASP66      -0.3021
     19 N          -6.4323    5.1200   -1.8863 N.am    2  ASP22      -0.3021
     20 N          -6.6371    2.1360    0.0257 N.am    3  UNK33      -0.2984
     21 NE1        -9.7683   -0.5890   -2.1179 N.ar    5  TRP55      -0.3604
     22 C          -3.7927    8.6246   -5.3403 C.3     1  UNK11       0.0304
     23 C          -5.1243    9.8792   -3.6565 C.3     1  UNK11       0.0304
     24 C          -2.8936    9.8630   -5.2035 C.3     1  UNK11       0.0280
     25 C          -4.9260   11.1458   -4.5224 C.3     1  UNK11       0.0280
     26 C          -5.8086    7.5600   -4.4668 C.2     1  UNK11       0.2179
     27 C          -6.9714    7.5760   -3.4931 C.3     1  UNK11       0.0510
     28 C          -7.8057    6.2951   -3.5535 C.3     1  UNK11       0.1076
     29 CA         -9.9231    2.9128    2.7965 C.3     4  LEU44       0.0997
     30 CB         -9.6062    4.3219    3.3328 C.3     4  LEU44      -0.0236
     31 CA        -12.0192    2.8702   -0.2984 C.3     5  TRP55       0.1034
     32 C          -3.7600   11.7692   -6.5647 C.ar    1  UNK11       0.0298
     33 CG        -10.5507    4.9052    4.4012 C.3     4  LEU44      -0.0446
     34 CB        -12.4541    1.8069   -1.3138 C.3     5  TRP55       0.0013
     35 C         -11.2705    2.8722    2.0376 C.2     4  LEU44       0.2340
     36 CA        -11.3362    6.2010   -2.0160 C.3     6  ASP66       0.1045
     37 C          -7.0297    5.0375   -3.1206 C.2     1  UNK11       0.2344
     38 CG        -11.3375    0.9768   -1.8819 C.ar    5  TRP55      -0.0201
     39 C         -11.1904    4.0090   -0.9398 C.2     5  TRP55       0.2343
     40 C         -10.2457    6.0838   -3.1082 C.2     6  ASP66       0.2343
     41 CA         -5.7346    4.0094   -1.2779 C.3     2  ASP22       0.1045
     42 CD2       -10.6966    3.9975    5.6205 C.3     4  LEU44      -0.0626
     43 CD1       -10.0391    6.2832    4.8367 C.3     4  LEU44      -0.0626
     44 C          -6.6448    1.4600    1.3155 C.3     3  UNK33       0.1311
     45 C          -4.2302   13.0935   -6.6210 C.ar    1  UNK11      -0.0407
     46 C          -3.3923   11.1801   -7.7837 C.ar    1  UNK11      -0.0407
     47 CD2       -10.6354    1.2063   -3.1075 C.ar    5  TRP55       0.0029
     48 C          -7.9293    1.5118    2.2032 C.2     3  UNK33       0.2390
     49 CB        -12.3924    7.1774   -2.5273 C.3     6  ASP66       0.0138
     50 CD1       -10.7827   -0.1537   -1.3110 C.ar    5  TRP55       0.0060
     51 CE2        -9.6633    0.2125   -3.2282 C.ar    5  TRP55       0.0467
     52 C          -6.5083    3.5086   -0.0422 C.2     2  ASP22       0.2345
     53 CB         -4.2987    4.3489   -0.9076 C.3     2  ASP22       0.0138
     54 C          -4.3455   13.7883   -7.8308 C.ar    1  UNK11      -0.0600
     55 C          -3.5093   11.8665   -8.9995 C.ar    1  UNK11      -0.0600
     56 C          -6.2268    0.0280    1.0310 C.ar    3  UNK33       0.0189
     57 CE3       -10.7216    2.1855   -4.1161 C.ar    5  TRP55      -0.0523
     58 C          -3.9877   13.1712   -9.0234 C.ar    1  UNK11      -0.0616
     59 CZ2        -8.7720    0.1491   -4.3060 C.ar    5  TRP55      -0.0378
     60 CG        -13.4259    7.4051   -1.4390 C.2     6  ASP66       0.0440
     61 CZ3        -9.8348    2.1419   -5.1964 C.ar    5  TRP55      -0.0611
     62 C          -4.9403   -0.4831    1.0631 C.ar    3  UNK33      -0.0493
     63 CH2        -8.8758    1.1372   -5.2890 C.ar    5  TRP55      -0.0598
     64 CG         -4.2077    5.5058    0.0820 C.2     2  ASP22       0.0440
     65 C          -4.8819   -1.8489    0.6642 C.ar    3  UNK33      -0.0544
     66 C          -6.1243   -2.3428    0.3390 C.ar    3  UNK33      -0.0240
     67 H          -8.8098    6.2464   -1.6813 H       1  UNK11       0.1495
     68 H         -10.2339    2.1362    0.4821 H       5  TRP55       0.1495
     69 H          -8.5058    3.2282    1.2377 H       4  LEU44       0.1495
     70 H         -12.9010    4.9767   -1.4524 H       6  ASP66       0.1495
     71 H          -6.3680    5.9884   -1.3490 H       2  ASP22       0.1495
     72 H          -6.2919    1.6118   -0.7674 H       3  UNK33       0.1498
     73 HE1        -9.1576   -1.3668   -1.9141 H       5  TRP55       0.1653
     74 H          -4.1650    8.5351   -6.3674 H       1  UNK11       0.0480
     75 H          -3.2164    7.7186   -5.1188 H       1  UNK11       0.0480
     76 H          -4.3757    9.8437   -2.8563 H       1  UNK11       0.0480
     77 H          -6.1059    9.9204   -3.1798 H       1  UNK11       0.0480
     78 H          -2.4329    9.8617   -4.2067 H       1  UNK11       0.0479
     79 H          -2.0510    9.8205   -5.9026 H       1  UNK11       0.0479
     80 H          -5.7977   11.2249   -5.1864 H       1  UNK11       0.0479
     81 H          -4.9147   12.0285   -3.8730 H       1  UNK11       0.0479
     82 H          -7.6189    8.4201   -3.7616 H       1  UNK11       0.0381
     83 H          -6.5882    7.7567   -2.4835 H       1  UNK11       0.0381
     84 H          -8.1402    6.1298   -4.5841 H       1  UNK11       0.0599
     85 HA         -9.9903    2.1878    3.6129 H       4  LEU44       0.0594
     86 HB1        -9.5802    5.0199    2.4836 H       4  LEU44       0.0290
     87 HB2        -8.5854    4.3127    3.7406 H       4  LEU44       0.0290
     88 HA        -12.9148    3.3263    0.1415 H       5  TRP55       0.0598
     89 HG        -11.5433    5.0601    3.9649 H       4  LEU44       0.0296
     90 HB1       -13.0117    2.2761   -2.1334 H       5  TRP55       0.0337
     91 HB2       -13.1588    1.1234   -0.8203 H       5  TRP55       0.0337
     92 HA        -10.8931    6.5896   -1.0893 H       6  ASP66       0.0598
     93 HA         -5.6940    3.1912   -2.0060 H       2  ASP22       0.0598
     94 HD21       -9.7213    3.7607    6.0580 H       4  LEU44       0.0232
     95 HD22      -11.1933    3.0584    5.3587 H       4  LEU44       0.0232
     96 HD23      -11.3055    4.4806    6.3923 H       4  LEU44       0.0232
     97 HD11       -9.0524    6.2115    5.3070 H       4  LEU44       0.0232
     98 HD12      -10.7245    6.7439    5.5560 H       4  LEU44       0.0232
     99 HD13       -9.9571    6.9574    3.9774 H       4  LEU44       0.0232
    100 H          -5.8648    1.9388    1.9241 H       3  UNK33       0.0651
    101 H          -4.5004   13.6079   -5.7023 H       1  UNK11       0.0636
    102 H          -3.0375   10.1557   -7.8267 H       1  UNK11       0.0636
    103 HB1       -12.9036    6.7866   -3.4156 H       6  ASP66       0.0348
    104 HB2       -11.9243    8.1281   -2.8119 H       6  ASP66       0.0348
    105 HD1       -11.0038   -0.6583   -0.3795 H       5  TRP55       0.0810
    106 HB1        -3.7330    4.6382   -1.8015 H       2  ASP22       0.0348
    107 HB2        -3.8069    3.4656   -0.4809 H       2  ASP22       0.0348
    108 H          -4.7157   14.8092   -7.8332 H       1  UNK11       0.0618
    109 H          -3.2342   11.3690   -9.9255 H       1  UNK11       0.0618
    110 HE3       -11.4392    2.9990   -4.0459 H       5  TRP55       0.0624
    111 H          -4.0835   13.7015   -9.9659 H       1  UNK11       0.0618
    112 HZ2        -8.0064   -0.6155   -4.3677 H       5  TRP55       0.0638
    113 HZ3        -9.8765    2.9298   -5.9450 H       5  TRP55       0.0618
    114 H          -4.0778    0.1107    1.3456 H       3  UNK33       0.0626
    115 HH2        -8.1768    1.1464   -6.1209 H       5  TRP55       0.0618
    116 H          -3.9732   -2.4353    0.6148 H       3  UNK33       0.0623
    117 H          -6.3749   -3.3415    0.0102 H       3  UNK33       0.0693
@<TRIPOS>BOND
     1     1    56   ar
     2     1    66   ar
     3     2    26    2
     4     3    35    2
     5     4    37    2
     6     5    39    2
     7     6    40    2
     8     7    48    2
     9     8    52    2
    10     9    60   ar
    11    10    60   ar
    12    11    64   ar
    13    12    64   ar
    14    13    22    1
    15    13    23    1
    16    14    24    1
    17    14    25    1
    18    14    32    1
    19    15    28    1
    20    15    40   am
    21    16    35   am
    22    16    31    1
    23    17    48   am
    24    17    29    1
    25    18    39   am
    26    18    36    1
    27    19    37   am
    28    19    41    1
    29    20    52   am
    30    20    44    1
    31    21    50   ar
    32    21    51   ar
    33    22    24    1
    34    23    25    1
    35    26    27    1
    36    26    13   am
    37    28    37    1
    38    28    27    1
    39    29    35    1
    40    29    30    1
    41    30    33    1
    42    31    39    1
    43    31    34    1
    44    32    45   ar
    45    32    46   ar
    46    33    43    1
    47    33    42    1
    48    34    38    1
    49    36    40    1
    50    36    49    1
    51    38    47   ar
    52    38    50   ar
    53    41    52    1
    54    41    53    1
    55    44    48    1
    56    44    56    1
    57    45    54   ar
    58    46    55   ar
    59    47    57   ar
    60    47    51   ar
    61    49    60    1
    62    51    59   ar
    63    53    64    1
    64    54    58   ar
    65    55    58   ar
    66    56    62   ar
    67    57    61   ar
    68    59    63   ar
    69    61    63   ar
    70    62    65   ar
    71    65    66   ar
    72    15    67    1
    73    16    68    1
    74    17    69    1
    75    18    70    1
    76    19    71    1
    77    20    72    1
    78    21    73    1
    79    22    74    1
    80    22    75    1
    81    23    76    1
    82    23    77    1
    83    24    78    1
    84    24    79    1
    85    25    80    1
    86    25    81    1
    87    27    82    1
    88    27    83    1
    89    28    84    1
    90    29    85    1
    91    30    86    1
    92    30    87    1
    93    31    88    1
    94    33    89    1
    95    34    90    1
    96    34    91    1
    97    36    92    1
    98    41    93    1
    99    42    94    1
   100    42    95    1
   101    42    96    1
   102    43    97    1
   103    43    98    1
   104    43    99    1
   105    44   100    1
   106    45   101    1
   107    46   102    1
   108    49   103    1
   109    49   104    1
   110    50   105    1
   111    53   106    1
   112    53   107    1
   113    54   108    1
   114    55   109    1
   115    57   110    1
   116    58   111    1
   117    59   112    1
   118    61   113    1
   119    62   114    1
   120    63   115    1
   121    65   116    1
   122    66   117    1
@<TRIPOS>MOLECULE
../1EDN/3STEPMIN_17-21.pdb
 47 48 0 0 0
SMALL
GASTEIGER

@<TRIPOS>ATOM
      1  N         -5.4290    0.8830   -1.1740 N.3    17  LEU17      -0.1231
      2  CA        -6.8230    0.6710   -0.7980 C.3    17  LEU17       0.1693
      3  CB        -6.9230   -0.4370    0.2770 C.3    17  LEU17       0.0284
      4  CG        -6.4950   -1.8450   -0.1910 C.3    17  LEU17       0.0019
      5  CD1       -6.5150   -2.8060    0.9980 C.3    17  LEU17       0.0001
      6  CD2       -7.4310   -2.4140   -1.2600 C.3    17  LEU17       0.0001
      7  C         -7.3990    2.0370   -0.3760 C.2    17  LEU17       0.2592
      8  O         -7.4670    2.9330   -1.2040 O.2    17  LEU17      -0.2718
      9  N         -7.7380    2.2560    0.8970 N.am   18  ASP18      -0.1960
     10  CA        -8.5130    3.4280    1.3730 C.3    18  ASP18       0.1840
     11  CB        -9.0510    3.1310    2.7840 C.3    18  ASP18       0.1450
     12  CG       -10.5470    3.4340    2.8500 C.2    18  ASP18       0.3671
     13  OD1      -11.3300    2.4930    2.5610 O.co2  18  ASP18      -0.2456
     14  OD2      -10.9050    4.5930    3.1470 O.co2  18  ASP18      -0.2456
     15  C         -7.8270    4.8120    1.2910 C.2    18  ASP18       0.2622
     16  O         -8.3890    5.8210    1.7350 O.2    18  ASP18      -0.2715
     17  N         -6.6250    4.8510    0.7010 N.am   19  ILE19      -0.1963
     18  CA        -5.9180    6.0210    0.1680 C.3    19  ILE19       0.1727
     19  CB        -4.3960    5.7260    0.0740 C.3    19  ILE19       0.0290
     20  CG2       -3.6150    6.9530   -0.4300 C.3    19  ILE19       0.0023
     21  CG1       -3.7730    5.2100    1.3920 C.3    19  ILE19       0.0022
     22  CD1       -3.8620    6.1700    2.5820 C.3    19  ILE19       0.0001
     23  C         -6.4970    6.4050   -1.2110 C.2    19  ILE19       0.2616
     24  O         -7.0070    7.5130   -1.3720 O.2    19  ILE19      -0.2715
     25  N         -6.3950    5.4980   -2.1940 N.am   20  ILE20      -0.1963
     26  CA        -6.9990    5.5490   -3.5400 C.3    20  ILE20       0.1727
     27  CB        -6.0900    6.2460   -4.5940 C.3    20  ILE20       0.0290
     28  CG2       -6.7980    6.2490   -5.9680 C.3    20  ILE20       0.0023
     29  CG1       -5.7140    7.6970   -4.2070 C.3    20  ILE20       0.0022
     30  CD1       -4.7810    8.4150   -5.1910 C.3    20  ILE20       0.0001
     31  C         -7.3180    4.1070   -3.9880 C.2    20  ILE20       0.2617
     32  O         -6.4020    3.3070   -4.2100 O.2    20  ILE20      -0.2715
     33  N         -8.6100    3.8210   -4.1620 N.am   21  TRP21      -0.1938
     34  CA        -9.2240    2.5950   -4.7020 C.3    21  TRP21       0.2021
     35  CB        -9.7020    1.6830   -3.5450 C.3    21  TRP21       0.0612
     36  CG       -10.4970    2.2370   -2.3850 C.ar   21  TRP21       0.0007
     37  CD1      -10.6860    1.5470   -1.2340 C.ar   21  TRP21       0.0946
     38  NE1      -11.3350    2.3340   -0.3040 N.ar   21  TRP21      -0.2442
     39  CE2      -11.5720    3.5950   -0.7990 C.ar   21  TRP21       0.0810
     40  CZ2      -12.0950    4.7480   -0.2000 C.ar   21  TRP21       0.0191
     41  CH2      -12.2340    5.9130   -0.9670 C.ar   21  TRP21       0.0015
     42  CZ3      -11.8800    5.8920   -2.3260 C.ar   21  TRP21       0.0001
     43  CE3      -11.3480    4.7280   -2.9100 C.ar   21  TRP21       0.0012
     44  CD2      -11.1270    3.5500   -2.1550 C.ar   21  TRP21       0.0152
     45  C        -10.3230    2.8760   -5.7330 C.2    21  TRP21       0.3845
     46  O        -11.0800    1.9620   -6.0950 O.co2  21  TRP21      -0.2437
     47  OXT      -10.4270    4.0430   -6.2080 O.co2  21  TRP21      -0.2437
@<TRIPOS>BOND
     1    47    45   ar
     2    46    45   ar
     3    28    27    1
     4    45    34    1
     5    30    29    1
     6    34    33    1
     7    34    35    1
     8    27    29    1
     9    27    26    1
    10    32    31    2
    11    33    31   am
    12    31    26    1
    13    35    36    1
    14    26    25    1
    15    43    42   ar
    16    43    44   ar
    17    36    44   ar
    18    36    37   ar
    19    42    41   ar
    20    25    23   am
    21    44    39   ar
    22    24    23    2
    23     6     4    1
    24    37    38   ar
    25    23    18    1
    26     8     7    2
    27     1     2    1
    28    41    40   ar
    29    39    38   ar
    30    39    40   ar
    31     2     7    1
    32     2     3    1
    33    20    19    1
    34     7     9   am
    35     4     3    1
    36     4     5    1
    37    19    18    1
    38    19    21    1
    39    18    17    1
    40    17    15   am
    41     9    10    1
    42    15    10    1
    43    15    16    2
    44    10    11    1
    45    21    22    1
    46    13    12   ar
    47    11    12    1
    48    12    14   ar
