@<TRIPOS>MOLECULE
../1EDN/3STEPMIN_17-21_NOBACKBONE.pdb
 26 23 0 0 0
SMALL
GASTEIGER

@<TRIPOS>ATOM
      1  CB        -6.9230   -0.4370    0.2770 C.3    17  LEU17       0.0000
      2  CG        -6.4950   -1.8450   -0.1910 C.3    17  LEU17       0.0000
      3  CD1       -6.5150   -2.8060    0.9980 C.3    17  LEU17       0.0000
      4  CD2       -7.4310   -2.4140   -1.2600 C.3    17  LEU17       0.0000
      5  CB        -9.0510    3.1310    2.7840 C.3    18  ASP18       0.1258
      6  CG       -10.5470    3.4340    2.8500 C.2    18  ASP18       0.3654
      7  OD1      -11.3300    2.4930    2.5610 O.co2  18  ASP18      -0.2456
      8  OD2      -10.9050    4.5930    3.1470 O.co2  18  ASP18      -0.2456
      9  CB        -4.3960    5.7260    0.0740 C.3    19  ILE19       0.0000
     10  CG2       -3.6150    6.9530   -0.4300 C.3    19  ILE19       0.0000
     11  CG1       -3.7730    5.2100    1.3920 C.3    19  ILE19       0.0000
     12  CD1       -3.8620    6.1700    2.5820 C.3    19  ILE19       0.0000
     13  CB        -6.0900    6.2460   -4.5940 C.3    20  ILE20       0.0000
     14  CG2       -6.7980    6.2490   -5.9680 C.3    20  ILE20       0.0000
     15  CG1       -5.7140    7.6970   -4.2070 C.3    20  ILE20       0.0000
     16  CD1       -4.7810    8.4150   -5.1910 C.3    20  ILE20       0.0000
     17  CB        -9.7020    1.6830   -3.5450 C.3    21  TRP21       0.0327
     18  CG       -10.4970    2.2370   -2.3850 C.ar   21  TRP21      -0.0013
     19  CD1      -10.6860    1.5470   -1.2340 C.ar   21  TRP21       0.0946
     20  NE1      -11.3350    2.3340   -0.3040 N.ar   21  TRP21      -0.2442
     21  CE2      -11.5720    3.5950   -0.7990 C.ar   21  TRP21       0.0810
     22  CZ2      -12.0950    4.7480   -0.2000 C.ar   21  TRP21       0.0191
     23  CH2      -12.2340    5.9130   -0.9670 C.ar   21  TRP21       0.0015
     24  CZ3      -11.8800    5.8920   -2.3260 C.ar   21  TRP21       0.0001
     25  CE3      -11.3480    4.7280   -2.9100 C.ar   21  TRP21       0.0012
     26  CD2      -11.1270    3.5500   -2.1550 C.ar   21  TRP21       0.0152
@<TRIPOS>BOND
     1    14    13    1
     2    16    15    1
     3    13    15    1
     4    17    18    1
     5    25    24   ar
     6    25    26   ar
     7    18    26   ar
     8    18    19   ar
     9    24    23   ar
    10    26    21   ar
    11     4     2    1
    12    19    20   ar
    13    23    22   ar
    14    21    20   ar
    15    21    22   ar
    16    10     9    1
    17     2     1    1
    18     2     3    1
    19     9    11    1
    20    11    12    1
    21     7     6   ar
    22     5     6    1
    23     6     8   ar
@<TRIPOS>MOLECULE
23693553
 97 99 0 0 0
SMALL
GASTEIGER

@<TRIPOS>ATOM
      1 O          -8.9030   -0.3482    1.5071 O.2     1  LIG11      -0.2526
      2 O         -12.1231    2.3356   -0.9516 O.2     1  LIG11      -0.2731
      3 O          -8.3719    3.0413   -1.3358 O.2     1  LIG11      -0.2689
      4 O         -12.9174    5.3375   -3.5418 O.co2   1  LIG11      -0.5479
      5 OXT       -11.4337    3.6311   -3.6904 O.co2   1  LIG11      -0.5479
      6 O          -6.5398    4.8042   -8.4593 O.3     1  LIG11      -0.4515
      7 O          -5.4923    6.8682   -8.4967 O.2     1  LIG11      -0.2227
      8 N          -7.7191   -0.7069   -0.4518 N.am    1  LIG11      -0.2801
      9 N          -9.3197    0.9848   -0.2822 N.am    1  LIG11      -0.2879
     10 N         -10.4825    3.9349   -1.1408 N.am    1  LIG11      -0.2273
     11 N          -9.5646    4.9729   -4.0938 N.4     1  LIG11       0.2276
     12 N          -6.1144    5.8795   -6.5038 N.ar    1  LIG11      -0.2526
     13 C          -7.6692   -0.5920   -1.9291 C.3     1  LIG11       0.0249
     14 C          -6.7434   -1.5431    0.2799 C.3     1  LIG11       0.0249
     15 C          -6.4138   -1.1822   -2.5803 C.3     1  LIG11      -0.0344
     16 C          -5.4167   -1.8323   -0.4500 C.3     1  LIG11      -0.0344
     17 C          -5.2052   -0.9850   -1.6889 C.3     1  LIG11      -0.0497
     18 CA        -10.2060    1.9021    0.4469 C.3     1  LIG11       0.1019
     19 C         -10.2557    3.2499    2.7521 C.3     1  LIG11      -0.0356
     20 C          -9.4468    2.6960    1.5403 C.3     1  LIG11      -0.0210
     21 C          -8.6825   -0.0591    0.3340 C.2     1  LIG11       0.3033
     22 C          -8.9136   -1.1900   -2.5934 C.3     1  LIG11      -0.0464
     23 C          -7.3513   -2.8590    0.7802 C.3     1  LIG11      -0.0464
     24 C         -11.0271    2.7657   -0.5733 C.2     1  LIG11       0.2429
     25 C         -10.9450    4.5642    2.3843 C.3     1  LIG11      -0.0600
     26 C         -11.3175    2.2679    3.2724 C.3     1  LIG11      -0.0600
     27 C          -9.2641    3.5436    3.8972 C.3     1  LIG11      -0.0600
     28 CA        -11.4942    4.8989   -1.6799 C.3     1  LIG11       0.0730
     29 C         -12.4645    5.5671   -0.6840 C.3     1  LIG11      -0.0286
     30 C          -9.2223    3.8421   -1.7527 C.2     1  LIG11       0.2708
     31 CA         -8.7174    4.8360   -2.8652 C.3     1  LIG11       0.0579
     32 C         -13.7178    4.7961   -0.2631 C.3     1  LIG11      -0.0513
     33 C          -7.3083    4.3557   -3.3281 C.3     1  LIG11       0.0261
     34 C         -12.1253    4.4944   -3.0470 C.2     1  LIG11       0.0626
     35 C          -6.7146    5.1792   -4.4310 C.ar    1  LIG11      -0.0158
     36 C         -14.5408    5.5209    0.8106 C.3     1  LIG11      -0.0558
     37 C          -6.1146    6.4623   -4.3129 C.ar    1  LIG11       0.0038
     38 C          -6.6592    4.8349   -5.7649 C.ar    1  LIG11       0.0202
     39 C          -5.7604    6.8864   -5.5999 C.ar    1  LIG11       0.0598
     40 C         -15.0373    6.8966    0.3987 C.3     1  LIG11      -0.0653
     41 C          -5.8535    7.3066   -3.2128 C.ar    1  LIG11      -0.0523
     42 C          -5.1666    8.1451   -5.8089 C.ar    1  LIG11      -0.0371
     43 C          -5.2608    8.5532   -3.4211 C.ar    1  LIG11      -0.0611
     44 C          -5.9873    5.9206   -7.9117 C.2     1  LIG11       0.4196
     45 C          -4.9267    8.9664   -4.7040 C.ar    1  LIG11      -0.0598
     46 C          -6.5441    4.8081   -9.8876 C.3     1  LIG11       0.0835
     47 H          -8.7317    1.4708   -0.9431 H       1  LIG11       0.1510
     48 H1         -9.0770    5.0631   -4.9851 H       1  LIG11       0.2002
     49 H2        -10.2572    5.7322   -4.0543 H       1  LIG11       0.2002
     50 H3        -10.1967    4.1269   -4.1884 H       1  LIG11       0.2002
     51 H          -7.6455    0.4772   -2.1651 H       1  LIG11       0.0498
     52 H          -6.4761   -0.9621    1.1744 H       1  LIG11       0.0498
     53 H          -6.2462   -0.7050   -3.5536 H       1  LIG11       0.0283
     54 H          -6.5492   -2.2533   -2.7805 H       1  LIG11       0.0283
     55 H          -5.3747   -2.8893   -0.7474 H       1  LIG11       0.0283
     56 H          -4.5781   -1.6916    0.2429 H       1  LIG11       0.0283
     57 H          -5.0771    0.0714   -1.4257 H       1  LIG11       0.0266
     58 H          -4.2963   -1.3072   -2.2088 H       1  LIG11       0.0266
     59 HA        -10.9328    1.2443    0.9360 H       1  LIG11       0.0595
     60 H          -8.8840    3.5204    1.0870 H       1  LIG11       0.0293
     61 H          -8.6709    2.0429    1.9583 H       1  LIG11       0.0293
     62 H          -9.0068   -2.2569   -2.3650 H       1  LIG11       0.0248
     63 H          -8.8619   -1.0762   -3.6822 H       1  LIG11       0.0248
     64 H          -9.8322   -0.7002   -2.2579 H       1  LIG11       0.0248
     65 H          -7.7073   -3.4708   -0.0544 H       1  LIG11       0.0248
     66 H          -8.1975   -2.6925    1.4525 H       1  LIG11       0.0248
     67 H          -6.6060   -3.4364    1.3395 H       1  LIG11       0.0248
     68 H         -10.2495    5.2675    1.9136 H       1  LIG11       0.0235
     69 H         -11.3720    5.0588    3.2638 H       1  LIG11       0.0235
     70 H         -11.7663    4.3698    1.6977 H       1  LIG11       0.0235
     71 H         -10.8805    1.2884    3.4923 H       1  LIG11       0.0235
     72 H         -12.1293    2.1280    2.5500 H       1  LIG11       0.0235
     73 H         -11.7801    2.6424    4.1933 H       1  LIG11       0.0235
     74 H          -8.7861    2.6229    4.2503 H       1  LIG11       0.0235
     75 H          -9.7701    4.0011    4.7551 H       1  LIG11       0.0235
     76 H          -8.4746    4.2297    3.5707 H       1  LIG11       0.0235
     77 HA        -10.8756    5.7623   -1.9614 H       1  LIG11       0.0567
     78 H         -12.8100    6.4950   -1.1603 H       1  LIG11       0.0287
     79 H         -11.9036    5.8967    0.1948 H       1  LIG11       0.0287
     80 HA         -8.6373    5.8380   -2.4290 H       1  LIG11       0.0952
     81 H         -13.4534    3.8280    0.1635 H       1  LIG11       0.0266
     82 H         -14.3495    4.6020   -1.1373 H       1  LIG11       0.0266
     83 H          -7.3717    3.3110   -3.6657 H       1  LIG11       0.0374
     84 H          -6.6131    4.3588   -2.4781 H       1  LIG11       0.0374
     85 H         -13.9472    5.6151    1.7276 H       1  LIG11       0.0263
     86 H         -15.4062    4.8957    1.0619 H       1  LIG11       0.0263
     87 H          -6.9777    3.9289   -6.2689 H       1  LIG11       0.0818
     88 H         -14.2091    7.6020    0.2826 H       1  LIG11       0.0230
     89 H         -15.7034    7.2992    1.1688 H       1  LIG11       0.0230
     90 H         -15.5925    6.8504   -0.5427 H       1  LIG11       0.0230
     91 H          -6.0946    6.9963   -2.1998 H       1  LIG11       0.0624
     92 H          -4.8906    8.4884   -6.8029 H       1  LIG11       0.0638
     93 H          -5.0549    9.2027   -2.5733 H       1  LIG11       0.0618
     94 H          -4.4659    9.9406   -4.8544 H       1  LIG11       0.0618
     95 H          -7.0785    3.9162  -10.2269 H       1  LIG11       0.0661
     96 H          -5.5203    4.7696  -10.2708 H       1  LIG11       0.0661
     97 H          -7.0698    5.6891  -10.2695 H       1  LIG11       0.0661
@<TRIPOS>BOND
     1     1    21    2
     2     2    24    2
     3     3    30    2
     4     4    34   ar
     5     5    34   ar
     6     6    44    1
     7     6    46    1
     8     7    44    2
     9     8    13    1
    10     8    14    1
    11     9    21   am
    12    10    24   am
    13    10    30   am
    14    12    39   ar
    15    12    38   ar
    16    12    44   am
    17    13    15    1
    18    13    22    1
    19    14    16    1
    20    14    23    1
    21    15    17    1
    22    16    17    1
    23    18     9    1
    24    18    24    1
    25    18    20    1
    26    19    20    1
    27    19    27    1
    28    19    26    1
    29    19    25    1
    30    21     8   am
    31    28    34    1
    32    28    29    1
    33    28    10    1
    34    29    32    1
    35    31    33    1
    36    31    11    1
    37    31    30    1
    38    32    36    1
    39    33    35    1
    40    35    38   ar
    41    35    37   ar
    42    36    40    1
    43    37    39   ar
    44    37    41   ar
    45    39    42   ar
    46    41    43   ar
    47    42    45   ar
    48    43    45   ar
    49     9    47    1
    50    11    48    1
    51    11    49    1
    52    11    50    1
    53    13    51    1
    54    14    52    1
    55    15    53    1
    56    15    54    1
    57    16    55    1
    58    16    56    1
    59    17    57    1
    60    17    58    1
    61    18    59    1
    62    20    60    1
    63    20    61    1
    64    22    62    1
    65    22    63    1
    66    22    64    1
    67    23    65    1
    68    23    66    1
    69    23    67    1
    70    25    68    1
    71    25    69    1
    72    25    70    1
    73    26    71    1
    74    26    72    1
    75    26    73    1
    76    27    74    1
    77    27    75    1
    78    27    76    1
    79    28    77    1
    80    29    78    1
    81    29    79    1
    82    31    80    1
    83    32    81    1
    84    32    82    1
    85    33    83    1
    86    33    84    1
    87    36    85    1
    88    36    86    1
    89    38    87    1
    90    40    88    1
    91    40    89    1
    92    40    90    1
    93    41    91    1
    94    42    92    1
    95    43    93    1
    96    45    94    1
    97    46    95    1
    98    46    96    1
    99    46    97    1
@<TRIPOS>MOLECULE
../1EDN/3STEPMIN_17-21.pdb
 47 48 0 0 0
SMALL
GASTEIGER

@<TRIPOS>ATOM
      1  N         -5.4290    0.8830   -1.1740 N.3    17  LEU17      -0.1231
      2  CA        -6.8230    0.6710   -0.7980 C.3    17  LEU17       0.1693
      3  CB        -6.9230   -0.4370    0.2770 C.3    17  LEU17       0.0284
      4  CG        -6.4950   -1.8450   -0.1910 C.3    17  LEU17       0.0019
      5  CD1       -6.5150   -2.8060    0.9980 C.3    17  LEU17       0.0001
      6  CD2       -7.4310   -2.4140   -1.2600 C.3    17  LEU17       0.0001
      7  C         -7.3990    2.0370   -0.3760 C.2    17  LEU17       0.2592
      8  O         -7.4670    2.9330   -1.2040 O.2    17  LEU17      -0.2718
      9  N         -7.7380    2.2560    0.8970 N.am   18  ASP18      -0.1960
     10  CA        -8.5130    3.4280    1.3730 C.3    18  ASP18       0.1840
     11  CB        -9.0510    3.1310    2.7840 C.3    18  ASP18       0.1450
     12  CG       -10.5470    3.4340    2.8500 C.2    18  ASP18       0.3671
     13  OD1      -11.3300    2.4930    2.5610 O.co2  18  ASP18      -0.2456
     14  OD2      -10.9050    4.5930    3.1470 O.co2  18  ASP18      -0.2456
     15  C         -7.8270    4.8120    1.2910 C.2    18  ASP18       0.2622
     16  O         -8.3890    5.8210    1.7350 O.2    18  ASP18      -0.2715
     17  N         -6.6250    4.8510    0.7010 N.am   19  ILE19      -0.1963
     18  CA        -5.9180    6.0210    0.1680 C.3    19  ILE19       0.1727
     19  CB        -4.3960    5.7260    0.0740 C.3    19  ILE19       0.0290
     20  CG2       -3.6150    6.9530   -0.4300 C.3    19  ILE19       0.0023
     21  CG1       -3.7730    5.2100    1.3920 C.3    19  ILE19       0.0022
     22  CD1       -3.8620    6.1700    2.5820 C.3    19  ILE19       0.0001
     23  C         -6.4970    6.4050   -1.2110 C.2    19  ILE19       0.2616
     24  O         -7.0070    7.5130   -1.3720 O.2    19  ILE19      -0.2715
     25  N         -6.3950    5.4980   -2.1940 N.am   20  ILE20      -0.1963
     26  CA        -6.9990    5.5490   -3.5400 C.3    20  ILE20       0.1727
     27  CB        -6.0900    6.2460   -4.5940 C.3    20  ILE20       0.0290
     28  CG2       -6.7980    6.2490   -5.9680 C.3    20  ILE20       0.0023
     29  CG1       -5.7140    7.6970   -4.2070 C.3    20  ILE20       0.0022
     30  CD1       -4.7810    8.4150   -5.1910 C.3    20  ILE20       0.0001
     31  C         -7.3180    4.1070   -3.9880 C.2    20  ILE20       0.2617
     32  O         -6.4020    3.3070   -4.2100 O.2    20  ILE20      -0.2715
     33  N         -8.6100    3.8210   -4.1620 N.am   21  TRP21      -0.1938
     34  CA        -9.2240    2.5950   -4.7020 C.3    21  TRP21       0.2021
     35  CB        -9.7020    1.6830   -3.5450 C.3    21  TRP21       0.0612
     36  CG       -10.4970    2.2370   -2.3850 C.ar   21  TRP21       0.0007
     37  CD1      -10.6860    1.5470   -1.2340 C.ar   21  TRP21       0.0946
     38  NE1      -11.3350    2.3340   -0.3040 N.ar   21  TRP21      -0.2442
     39  CE2      -11.5720    3.5950   -0.7990 C.ar   21  TRP21       0.0810
     40  CZ2      -12.0950    4.7480   -0.2000 C.ar   21  TRP21       0.0191
     41  CH2      -12.2340    5.9130   -0.9670 C.ar   21  TRP21       0.0015
     42  CZ3      -11.8800    5.8920   -2.3260 C.ar   21  TRP21       0.0001
     43  CE3      -11.3480    4.7280   -2.9100 C.ar   21  TRP21       0.0012
     44  CD2      -11.1270    3.5500   -2.1550 C.ar   21  TRP21       0.0152
     45  C        -10.3230    2.8760   -5.7330 C.2    21  TRP21       0.3845
     46  O        -11.0800    1.9620   -6.0950 O.co2  21  TRP21      -0.2437
     47  OXT      -10.4270    4.0430   -6.2080 O.co2  21  TRP21      -0.2437
@<TRIPOS>BOND
     1    47    45   ar
     2    46    45   ar
     3    28    27    1
     4    45    34    1
     5    30    29    1
     6    34    33    1
     7    34    35    1
     8    27    29    1
     9    27    26    1
    10    32    31    2
    11    33    31   am
    12    31    26    1
    13    35    36    1
    14    26    25    1
    15    43    42   ar
    16    43    44   ar
    17    36    44   ar
    18    36    37   ar
    19    42    41   ar
    20    25    23   am
    21    44    39   ar
    22    24    23    2
    23     6     4    1
    24    37    38   ar
    25    23    18    1
    26     8     7    2
    27     1     2    1
    28    41    40   ar
    29    39    38   ar
    30    39    40   ar
    31     2     7    1
    32     2     3    1
    33    20    19    1
    34     7     9   am
    35     4     3    1
    36     4     5    1
    37    19    18    1
    38    19    21    1
    39    18    17    1
    40    17    15   am
    41     9    10    1
    42    15    10    1
    43    15    16    2
    44    10    11    1
    45    21    22    1
    46    13    12   ar
    47    11    12    1
    48    12    14   ar
