@<TRIPOS>MOLECULE
../1EDN/3STEPMIN_17-21_NOBACKBONE.pdb
 26 23 0 0 0
SMALL
GASTEIGER

@<TRIPOS>ATOM
      1  CB        -6.9230   -0.4370    0.2770 C.3    17  LEU17       0.0000
      2  CG        -6.4950   -1.8450   -0.1910 C.3    17  LEU17       0.0000
      3  CD1       -6.5150   -2.8060    0.9980 C.3    17  LEU17       0.0000
      4  CD2       -7.4310   -2.4140   -1.2600 C.3    17  LEU17       0.0000
      5  CB        -9.0510    3.1310    2.7840 C.3    18  ASP18       0.1258
      6  CG       -10.5470    3.4340    2.8500 C.2    18  ASP18       0.3654
      7  OD1      -11.3300    2.4930    2.5610 O.co2  18  ASP18      -0.2456
      8  OD2      -10.9050    4.5930    3.1470 O.co2  18  ASP18      -0.2456
      9  CB        -4.3960    5.7260    0.0740 C.3    19  ILE19       0.0000
     10  CG2       -3.6150    6.9530   -0.4300 C.3    19  ILE19       0.0000
     11  CG1       -3.7730    5.2100    1.3920 C.3    19  ILE19       0.0000
     12  CD1       -3.8620    6.1700    2.5820 C.3    19  ILE19       0.0000
     13  CB        -6.0900    6.2460   -4.5940 C.3    20  ILE20       0.0000
     14  CG2       -6.7980    6.2490   -5.9680 C.3    20  ILE20       0.0000
     15  CG1       -5.7140    7.6970   -4.2070 C.3    20  ILE20       0.0000
     16  CD1       -4.7810    8.4150   -5.1910 C.3    20  ILE20       0.0000
     17  CB        -9.7020    1.6830   -3.5450 C.3    21  TRP21       0.0327
     18  CG       -10.4970    2.2370   -2.3850 C.ar   21  TRP21      -0.0013
     19  CD1      -10.6860    1.5470   -1.2340 C.ar   21  TRP21       0.0946
     20  NE1      -11.3350    2.3340   -0.3040 N.ar   21  TRP21      -0.2442
     21  CE2      -11.5720    3.5950   -0.7990 C.ar   21  TRP21       0.0810
     22  CZ2      -12.0950    4.7480   -0.2000 C.ar   21  TRP21       0.0191
     23  CH2      -12.2340    5.9130   -0.9670 C.ar   21  TRP21       0.0015
     24  CZ3      -11.8800    5.8920   -2.3260 C.ar   21  TRP21       0.0001
     25  CE3      -11.3480    4.7280   -2.9100 C.ar   21  TRP21       0.0012
     26  CD2      -11.1270    3.5500   -2.1550 C.ar   21  TRP21       0.0152
@<TRIPOS>BOND
     1    14    13    1
     2    16    15    1
     3    13    15    1
     4    17    18    1
     5    25    24   ar
     6    25    26   ar
     7    18    26   ar
     8    18    19   ar
     9    24    23   ar
    10    26    21   ar
    11     4     2    1
    12    19    20   ar
    13    23    22   ar
    14    21    20   ar
    15    21    22   ar
    16    10     9    1
    17     2     1    1
    18     2     3    1
    19     9    11    1
    20    11    12    1
    21     7     6   ar
    22     5     6    1
    23     6     8   ar
@<TRIPOS>MOLECULE
9910224
 46 49 0 0 0
SMALL
GASTEIGER

@<TRIPOS>ATOM
      1 S         -10.4375    2.2480   -1.4725 S.O2    1  LIG11       0.0756
      2 O         -11.2531    1.0675   -1.2844 O.2     1  LIG11      -0.1499
      3 O          -9.6971    2.4050   -2.7038 O.2     1  LIG11      -0.1499
      4 O         -10.8719    0.6717    1.5994 O.3     1  LIG11      -0.4773
      5 O          -6.6848    7.3064   -5.8169 O.2     1  LIG11      -0.4229
      6 N          -9.3148    2.3184   -0.2176 N.pl3   1  LIG11      -0.1951
      7 N         -12.0867    5.9559   -1.5803 N.ar    1  LIG11      -0.2530
      8 N          -9.5067    4.0342    1.2692 N.ar    1  LIG11      -0.2325
      9 N         -11.2077    2.5516    2.9858 N.ar    1  LIG11      -0.2137
     10 N          -5.2506    6.7653   -4.1878 N.ar    1  LIG11      -0.1076
     11 N          -4.5308    7.3387   -5.2171 N.ar    1  LIG11      -0.1156
     12 C         -11.4973    3.6509   -1.2560 C.ar    1  LIG11       0.1344
     13 C         -11.1998    4.9247   -1.7351 C.ar    1  LIG11       0.0975
     14 C          -9.9876    5.3500   -2.4530 C.ar    1  LIG11       0.0023
     15 C         -12.7405    3.4334   -0.6358 C.ar    1  LIG11      -0.0315
     16 C          -8.7223    5.3723   -1.8531 C.ar    1  LIG11      -0.0518
     17 C         -10.0915    5.8377   -3.7668 C.ar    1  LIG11      -0.0518
     18 C          -9.8059    2.7396    1.0392 C.ar    1  LIG11       0.2006
     19 C          -7.7021    6.2834   -3.8721 C.ar    1  LIG11       0.0385
     20 C          -7.5934    5.8126   -2.5572 C.ar    1  LIG11      -0.0488
     21 C          -8.9691    6.2996   -4.4658 C.ar    1  LIG11      -0.0488
     22 C         -13.6364    4.4827   -0.4804 C.ar    1  LIG11      -0.0417
     23 C         -13.2659    5.7185   -0.9651 C.ar    1  LIG11       0.0284
     24 C         -10.6343    1.9956    1.8881 C.ar    1  LIG11       0.2574
     25 C          -6.5138    6.7573   -4.5698 C.ar    1  LIG11       0.2480
     26 C         -10.9233    3.8588    3.2125 C.ar    1  LIG11       0.0602
     27 C         -10.0814    4.5751    2.3681 C.ar    1  LIG11       0.0510
     28 C         -11.5677    4.5281    4.3858 C.3     1  LIG11      -0.0208
     29 C         -11.6357    0.0002    2.5937 C.3     1  LIG11       0.0805
     30 C          -5.4070    7.6401   -6.1447 C.ar    1  LIG11       0.2047
     31 H          -8.4776    2.8165   -0.5044 H       1  LIG11       0.1754
     32 H         -13.0212    2.4443   -0.2755 H       1  LIG11       0.0638
     33 H          -8.5960    5.0813   -0.8157 H       1  LIG11       0.0624
     34 H         -11.0670    5.8785   -4.2503 H       1  LIG11       0.0624
     35 H          -6.6240    5.8036   -2.0591 H       1  LIG11       0.0625
     36 H          -9.1051    6.6767   -5.4774 H       1  LIG11       0.0625
     37 H         -14.5997    4.3344   -0.0048 H       1  LIG11       0.0633
     38 H         -13.9246    6.5778   -0.8803 H       1  LIG11       0.0830
     39 H          -9.8556    5.6228    2.5450 H       1  LIG11       0.0848
     40 H         -12.1352    3.8071    4.9824 H       1  LIG11       0.0293
     41 H         -10.8088    4.9821    5.0301 H       1  LIG11       0.0293
     42 H         -12.2574    5.3052    4.0414 H       1  LIG11       0.0293
     43 H         -11.7351   -1.0462    2.2895 H       1  LIG11       0.0660
     44 H         -11.1270    0.0166    3.5636 H       1  LIG11       0.0660
     45 H         -12.6435    0.4223    2.6718 H       1  LIG11       0.0660
     46 H          -5.2449    8.1068   -7.1038 H       1  LIG11       0.1272
@<TRIPOS>BOND
     1     1     2    2
     2     1     3    2
     3     1     6    1
     4     1    12    1
     5     4    24    1
     6     4    29    1
     7     5    25   ar
     8     5    30   ar
     9     6    18    1
    10     7    13   ar
    11     7    23   ar
    12     8    18   ar
    13     8    27   ar
    14     9    24   ar
    15     9    26   ar
    16    10    11   ar
    17    10    25   ar
    18    11    30   ar
    19    12    13   ar
    20    12    15   ar
    21    13    14    1
    22    14    16   ar
    23    14    17   ar
    24    15    22   ar
    25    16    20   ar
    26    17    21   ar
    27    18    24   ar
    28    19    20   ar
    29    19    21   ar
    30    19    25    1
    31    22    23   ar
    32    26    27   ar
    33    26    28    1
    34     6    31    1
    35    15    32    1
    36    16    33    1
    37    17    34    1
    38    20    35    1
    39    21    36    1
    40    22    37    1
    41    23    38    1
    42    27    39    1
    43    28    40    1
    44    28    41    1
    45    28    42    1
    46    29    43    1
    47    29    44    1
    48    29    45    1
    49    30    46    1
@<TRIPOS>MOLECULE
../1EDN/3STEPMIN_17-21.pdb
 47 48 0 0 0
SMALL
GASTEIGER

@<TRIPOS>ATOM
      1  N         -5.4290    0.8830   -1.1740 N.3    17  LEU17      -0.1231
      2  CA        -6.8230    0.6710   -0.7980 C.3    17  LEU17       0.1693
      3  CB        -6.9230   -0.4370    0.2770 C.3    17  LEU17       0.0284
      4  CG        -6.4950   -1.8450   -0.1910 C.3    17  LEU17       0.0019
      5  CD1       -6.5150   -2.8060    0.9980 C.3    17  LEU17       0.0001
      6  CD2       -7.4310   -2.4140   -1.2600 C.3    17  LEU17       0.0001
      7  C         -7.3990    2.0370   -0.3760 C.2    17  LEU17       0.2592
      8  O         -7.4670    2.9330   -1.2040 O.2    17  LEU17      -0.2718
      9  N         -7.7380    2.2560    0.8970 N.am   18  ASP18      -0.1960
     10  CA        -8.5130    3.4280    1.3730 C.3    18  ASP18       0.1840
     11  CB        -9.0510    3.1310    2.7840 C.3    18  ASP18       0.1450
     12  CG       -10.5470    3.4340    2.8500 C.2    18  ASP18       0.3671
     13  OD1      -11.3300    2.4930    2.5610 O.co2  18  ASP18      -0.2456
     14  OD2      -10.9050    4.5930    3.1470 O.co2  18  ASP18      -0.2456
     15  C         -7.8270    4.8120    1.2910 C.2    18  ASP18       0.2622
     16  O         -8.3890    5.8210    1.7350 O.2    18  ASP18      -0.2715
     17  N         -6.6250    4.8510    0.7010 N.am   19  ILE19      -0.1963
     18  CA        -5.9180    6.0210    0.1680 C.3    19  ILE19       0.1727
     19  CB        -4.3960    5.7260    0.0740 C.3    19  ILE19       0.0290
     20  CG2       -3.6150    6.9530   -0.4300 C.3    19  ILE19       0.0023
     21  CG1       -3.7730    5.2100    1.3920 C.3    19  ILE19       0.0022
     22  CD1       -3.8620    6.1700    2.5820 C.3    19  ILE19       0.0001
     23  C         -6.4970    6.4050   -1.2110 C.2    19  ILE19       0.2616
     24  O         -7.0070    7.5130   -1.3720 O.2    19  ILE19      -0.2715
     25  N         -6.3950    5.4980   -2.1940 N.am   20  ILE20      -0.1963
     26  CA        -6.9990    5.5490   -3.5400 C.3    20  ILE20       0.1727
     27  CB        -6.0900    6.2460   -4.5940 C.3    20  ILE20       0.0290
     28  CG2       -6.7980    6.2490   -5.9680 C.3    20  ILE20       0.0023
     29  CG1       -5.7140    7.6970   -4.2070 C.3    20  ILE20       0.0022
     30  CD1       -4.7810    8.4150   -5.1910 C.3    20  ILE20       0.0001
     31  C         -7.3180    4.1070   -3.9880 C.2    20  ILE20       0.2617
     32  O         -6.4020    3.3070   -4.2100 O.2    20  ILE20      -0.2715
     33  N         -8.6100    3.8210   -4.1620 N.am   21  TRP21      -0.1938
     34  CA        -9.2240    2.5950   -4.7020 C.3    21  TRP21       0.2021
     35  CB        -9.7020    1.6830   -3.5450 C.3    21  TRP21       0.0612
     36  CG       -10.4970    2.2370   -2.3850 C.ar   21  TRP21       0.0007
     37  CD1      -10.6860    1.5470   -1.2340 C.ar   21  TRP21       0.0946
     38  NE1      -11.3350    2.3340   -0.3040 N.ar   21  TRP21      -0.2442
     39  CE2      -11.5720    3.5950   -0.7990 C.ar   21  TRP21       0.0810
     40  CZ2      -12.0950    4.7480   -0.2000 C.ar   21  TRP21       0.0191
     41  CH2      -12.2340    5.9130   -0.9670 C.ar   21  TRP21       0.0015
     42  CZ3      -11.8800    5.8920   -2.3260 C.ar   21  TRP21       0.0001
     43  CE3      -11.3480    4.7280   -2.9100 C.ar   21  TRP21       0.0012
     44  CD2      -11.1270    3.5500   -2.1550 C.ar   21  TRP21       0.0152
     45  C        -10.3230    2.8760   -5.7330 C.2    21  TRP21       0.3845
     46  O        -11.0800    1.9620   -6.0950 O.co2  21  TRP21      -0.2437
     47  OXT      -10.4270    4.0430   -6.2080 O.co2  21  TRP21      -0.2437
@<TRIPOS>BOND
     1    47    45   ar
     2    46    45   ar
     3    28    27    1
     4    45    34    1
     5    30    29    1
     6    34    33    1
     7    34    35    1
     8    27    29    1
     9    27    26    1
    10    32    31    2
    11    33    31   am
    12    31    26    1
    13    35    36    1
    14    26    25    1
    15    43    42   ar
    16    43    44   ar
    17    36    44   ar
    18    36    37   ar
    19    42    41   ar
    20    25    23   am
    21    44    39   ar
    22    24    23    2
    23     6     4    1
    24    37    38   ar
    25    23    18    1
    26     8     7    2
    27     1     2    1
    28    41    40   ar
    29    39    38   ar
    30    39    40   ar
    31     2     7    1
    32     2     3    1
    33    20    19    1
    34     7     9   am
    35     4     3    1
    36     4     5    1
    37    19    18    1
    38    19    21    1
    39    18    17    1
    40    17    15   am
    41     9    10    1
    42    15    10    1
    43    15    16    2
    44    10    11    1
    45    21    22    1
    46    13    12   ar
    47    11    12    1
    48    12    14   ar
