@<TRIPOS>MOLECULE
../1EDN/PCA1_17-21_NOBACKBONE.pdb
 26 23 0 0 0
SMALL
GASTEIGER

@<TRIPOS>ATOM
      1  CB        -6.0770   -2.3450   -1.7480 C.3    17  LEU17       0.0000
      2  CG        -7.4170   -3.0590   -2.1890 C.3    17  LEU17       0.0000
      3  CD1       -7.4920   -3.1930   -3.7220 C.3    17  LEU17       0.0000
      4  CD2       -7.5340   -4.4610   -1.6100 C.3    17  LEU17       0.0000
      5  CB        -8.8290    0.4520    1.4200 C.3    18  ASP18       0.1258
      6  CG        -9.9140    1.2760    2.0640 C.2    18  ASP18       0.3654
      7  OD1      -10.8560    1.7240    1.3430 O.co2  18  ASP18      -0.2456
      8  OD2       -9.7710    1.5960    3.2830 O.co2  18  ASP18      -0.2456
      9  CB        -5.0730    3.3500    3.1520 C.3    19  ILE19       0.0000
     10  CG2       -4.5850    4.5470    3.9530 C.3    19  ILE19       0.0000
     11  CG1       -5.6210    2.1420    3.9730 C.3    19  ILE19       0.0000
     12  CD1       -6.7460    2.5740    4.8760 C.3    19  ILE19       0.0000
     13  CB        -2.8480    5.4620   -0.8180 C.3    20  ILE20       0.0000
     14  CG2       -2.5210    6.1670    0.5290 C.3    20  ILE20       0.0000
     15  CG1       -1.9270    4.2500   -0.9510 C.3    20  ILE20       0.0000
     16  CD1       -0.4520    4.4090   -1.0350 C.3    20  ILE20       0.0000
     17  CB        -7.1930    6.0870   -4.6010 C.3    21  TRP21       0.0066
     18  CG        -8.1480    4.9210   -4.3560 C.3    21  TRP21       0.0452
     19  CD1       -8.4270    4.3170   -3.1580 C.3    21  TRP21       0.1165
     20  NE1       -9.4680    3.4340   -3.3480 N.pl3  21  TRP21      -0.2376
     21  CE2      -10.0400    3.5420   -4.5600 C.ar   21  TRP21       0.0614
     22  CZ2      -11.2420    2.9770   -5.0990 C.ar   21  TRP21       0.0158
     23  CH2      -11.3060    3.0240   -6.5170 C.ar   21  TRP21       0.0013
     24  CZ3      -10.3640    3.7270   -7.2650 C.ar   21  TRP21      -0.0002
     25  CE3       -9.2810    4.3830   -6.7050 C.ar   21  TRP21      -0.0030
     26  CD2       -9.0950    4.3440   -5.3390 C.ar   21  TRP21      -0.0059
@<TRIPOS>BOND
     1    24    25   ar
     2    24    23   ar
     3    25    26   ar
     4    23    22   ar
     5    26    21   ar
     6    26    18    1
     7    22    21   ar
     8    17    18    1
     9    21    20    1
    10    18    19    1
    11     3     2    1
    12    20    19    1
    13     2     1    1
    14     2     4    1
    15    16    15    1
    16    15    13    1
    17    13    14    1
    18     7     6   ar
    19     5     6    1
    20     6     8   ar
    21     9    10    1
    22     9    11    1
    23    11    12    1
@<TRIPOS>MOLECULE
01479498K
 57 61 0 0 0
SMALL
GASTEIGER

@<TRIPOS>ATOM
      1 C          -6.3471    3.8842   -3.2188 C.3     1  LIG11       0.1526
      2 C          -6.3897    3.7979   -1.7224 C.2     1  LIG11       0.0278
      3 C          -7.6987    3.8808   -3.9473 C.ar    1  LIG11       0.0009
      4 O          -5.5315    2.8358   -3.8112 O.3     1  LIG11      -0.4789
      5 C          -6.2459    2.6417   -1.0451 C.2     1  LIG11       0.0016
      6 C          -6.5667    5.1578   -1.0533 C.2     1  LIG11       0.0721
      7 C          -8.9244    3.6986   -3.2804 C.ar    1  LIG11      -0.0091
      8 C          -7.7087    4.0436   -5.3581 C.ar    1  LIG11      -0.0511
      9 C          -5.7050    1.6039   -3.2378 C.ar    1  LIG11       0.1298
     10 C          -6.0703    1.4448   -1.8978 C.ar    1  LIG11       0.0283
     11 C          -6.2875    2.6291    0.4302 C.ar    1  LIG11      -0.0165
     12 O          -5.5517    5.9062   -1.1089 O.co2   1  LIG11      -0.5448
     13 O          -7.7239    5.3886   -0.6022 O.co2   1  LIG11      -0.5448
     14 C         -10.0844    3.6771   -4.0269 C.ar    1  LIG11       0.1666
     15 C          -8.9007    4.0193   -6.0899 C.ar    1  LIG11      -0.0158
     16 C          -5.4701    0.4991   -4.0545 C.ar    1  LIG11      -0.0158
     17 C          -6.2469    0.1437   -1.4065 C.ar    1  LIG11      -0.0087
     18 C          -5.1019    2.6419    1.1706 C.ar    1  LIG11      -0.0505
     19 C          -7.5128    2.5953    1.1027 C.ar    1  LIG11      -0.0505
     20 C         -10.0726    3.8331   -5.3925 C.ar    1  LIG11       0.1662
     21 O         -11.3420    3.5005   -3.5369 O.3     1  LIG11      -0.4526
     22 C          -5.6609   -0.7901   -3.5562 C.ar    1  LIG11      -0.0164
     23 C          -6.0801   -0.9702   -2.2385 C.ar    1  LIG11       0.1217
     24 C          -5.1471    2.6209    2.5673 C.ar    1  LIG11      -0.0194
     25 C          -7.5569    2.5769    2.5001 C.ar    1  LIG11      -0.0194
     26 O         -11.3202    3.7788   -5.9338 O.3     1  LIG11      -0.4526
     27 C         -12.1172    3.6052   -4.7438 C.3     1  LIG11       0.2332
     28 O          -6.3363   -2.1777   -1.6475 O.3     1  LIG11      -0.4893
     29 C          -6.3722    2.6000    3.2383 C.ar    1  LIG11       0.1201
     30 C          -6.7756   -3.2554   -2.4829 C.3     1  LIG11       0.0946
     31 O          -6.2875    2.5953    4.6055 O.3     1  LIG11      -0.4951
     32 C          -8.1918   -3.0100   -3.0036 C.3     1  LIG11      -0.0281
     33 C          -6.7613   -4.5101   -1.6113 C.3     1  LIG11      -0.0281
     34 C          -7.4732    2.9679    5.2975 C.3     1  LIG11       0.0788
     35 H          -5.8415    4.8172   -3.5007 H       1  LIG11       0.0837
     36 H          -8.9770    3.5874   -2.2012 H       1  LIG11       0.0659
     37 H          -6.7650    4.1828   -5.8826 H       1  LIG11       0.0623
     38 H          -8.9009    4.1416   -7.1657 H       1  LIG11       0.0655
     39 H          -5.1586    0.6495   -5.0835 H       1  LIG11       0.0655
     40 H          -6.5450   -0.0136   -0.3731 H       1  LIG11       0.0661
     41 H          -4.1437    2.6942    0.6597 H       1  LIG11       0.0625
     42 H          -8.4393    2.6188    0.5334 H       1  LIG11       0.0625
     43 H          -5.4742   -1.6257   -4.2193 H       1  LIG11       0.0655
     44 H          -4.2208    2.6507    3.1327 H       1  LIG11       0.0654
     45 H          -8.5315    2.5592    2.9736 H       1  LIG11       0.0654
     46 H         -12.7148    2.6930   -4.8552 H       1  LIG11       0.1166
     47 H         -12.7988    4.4589   -4.6512 H       1  LIG11       0.1166
     48 H          -6.0778   -3.4280   -3.3089 H       1  LIG11       0.0727
     49 H          -8.8808   -2.7978   -2.1785 H       1  LIG11       0.0265
     50 H          -8.2266   -2.1437   -3.6717 H       1  LIG11       0.0265
     51 H          -8.5645   -3.8767   -3.5588 H       1  LIG11       0.0265
     52 H          -7.4221   -4.3944   -0.7446 H       1  LIG11       0.0265
     53 H          -7.0765   -5.3922   -2.1774 H       1  LIG11       0.0265
     54 H          -5.7550   -4.6898   -1.2179 H       1  LIG11       0.0265
     55 H          -7.2174    3.0937    6.3541 H       1  LIG11       0.0660
     56 H          -7.8683    3.9240    4.9362 H       1  LIG11       0.0660
     57 H          -8.2282    2.1776    5.2311 H       1  LIG11       0.0660
@<TRIPOS>BOND
     1     1     4    1
     2     1     2    1
     3     1     3    1
     4     2     5    2
     5     2     6    1
     6     3     8   ar
     7     3     7   ar
     8     4     9    1
     9     5    10    1
    10     5    11    1
    11     6    13   ar
    12     6    12   ar
    13     7    14   ar
    14     8    15   ar
    15     9    16   ar
    16     9    10   ar
    17    10    17   ar
    18    11    18   ar
    19    11    19   ar
    20    14    21    1
    21    14    20   ar
    22    15    20   ar
    23    16    22   ar
    24    17    23   ar
    25    18    24   ar
    26    19    25   ar
    27    20    26    1
    28    21    27    1
    29    22    23   ar
    30    23    28    1
    31    24    29   ar
    32    25    29   ar
    33    26    27    1
    34    28    30    1
    35    29    31    1
    36    30    33    1
    37    30    32    1
    38    31    34    1
    39     1    35    1
    40     7    36    1
    41     8    37    1
    42    15    38    1
    43    16    39    1
    44    17    40    1
    45    18    41    1
    46    19    42    1
    47    22    43    1
    48    24    44    1
    49    25    45    1
    50    27    46    1
    51    27    47    1
    52    30    48    1
    53    32    49    1
    54    32    50    1
    55    32    51    1
    56    33    52    1
    57    33    53    1
    58    33    54    1
    59    34    55    1
    60    34    56    1
    61    34    57    1
@<TRIPOS>MOLECULE
../1EDN/PCA1_17-21.pdb
 47 48 0 0 0
SMALL
GASTEIGER

@<TRIPOS>ATOM
      1  N         -4.6470   -0.3680   -1.6750 N.3    17  LEU17      -0.1231
      2  CA        -5.8920   -0.8550   -2.2480 C.3    17  LEU17       0.1693
      3  CB        -6.0770   -2.3450   -1.7480 C.3    17  LEU17       0.0284
      4  CG        -7.4170   -3.0590   -2.1890 C.3    17  LEU17       0.0019
      5  CD1       -7.4920   -3.1930   -3.7220 C.3    17  LEU17       0.0001
      6  CD2       -7.5340   -4.4610   -1.6100 C.3    17  LEU17       0.0001
      7  C         -7.0080    0.1010   -1.8270 C.2    17  LEU17       0.2592
      8  O         -7.6220    0.6590   -2.7680 O.2    17  LEU17      -0.2718
      9  N         -7.2890    0.1920   -0.5460 N.am   18  ASP18      -0.1960
     10  CA        -8.2730    1.1070    0.1120 C.3    18  ASP18       0.1840
     11  CB        -8.8290    0.4520    1.4200 C.3    18  ASP18       0.1450
     12  CG        -9.9140    1.2760    2.0640 C.2    18  ASP18       0.3671
     13  OD1      -10.8560    1.7240    1.3430 O.co2  18  ASP18      -0.2456
     14  OD2       -9.7710    1.5960    3.2830 O.co2  18  ASP18      -0.2456
     15  C         -7.6270    2.4530    0.4740 C.2    18  ASP18       0.2622
     16  O         -8.0770    3.4620   -0.0480 O.2    18  ASP18      -0.2715
     17  N         -6.6010    2.4770    1.3340 N.am   19  ILE19      -0.1963
     18  CA        -6.1660    3.6270    2.0790 C.3    19  ILE19       0.1727
     19  CB        -5.0730    3.3500    3.1520 C.3    19  ILE19       0.0290
     20  CG2       -4.5850    4.5470    3.9530 C.3    19  ILE19       0.0023
     21  CG1       -5.6210    2.1420    3.9730 C.3    19  ILE19       0.0022
     22  CD1       -6.7460    2.5740    4.8760 C.3    19  ILE19       0.0001
     23  C         -5.6740    4.7260    1.1170 C.2    19  ILE19       0.2616
     24  O         -5.9640    5.8590    1.4260 O.2    19  ILE19      -0.2715
     25  N         -4.8940    4.3400    0.1060 N.am   20  ILE20      -0.1963
     26  CA        -4.3700    5.1770   -0.9560 C.3    20  ILE20       0.1727
     27  CB        -2.8480    5.4620   -0.8180 C.3    20  ILE20       0.0290
     28  CG2       -2.5210    6.1670    0.5290 C.3    20  ILE20       0.0023
     29  CG1       -1.9270    4.2500   -0.9510 C.3    20  ILE20       0.0022
     30  CD1       -0.4520    4.4090   -1.0350 C.3    20  ILE20       0.0001
     31  C         -4.8260    4.7960   -2.3980 C.2    20  ILE20       0.2617
     32  O         -4.8210    3.6210   -2.7490 O.2    20  ILE20      -0.2715
     33  N         -5.1950    5.7710   -3.1960 N.am   21  TRP21      -0.1941
     34  CA        -5.6960    5.8160   -4.5740 C.3    21  TRP21       0.1982
     35  CB        -7.1930    6.0870   -4.6010 C.3    21  TRP21       0.0394
     36  CG        -8.1480    4.9210   -4.3560 C.3    21  TRP21       0.0475
     37  CD1       -8.4270    4.3170   -3.1580 C.3    21  TRP21       0.1166
     38  NE1       -9.4680    3.4340   -3.3480 N.pl3  21  TRP21      -0.2376
     39  CE2      -10.0400    3.5420   -4.5600 C.ar   21  TRP21       0.0614
     40  CZ2      -11.2420    2.9770   -5.0990 C.ar   21  TRP21       0.0158
     41  CH2      -11.3060    3.0240   -6.5170 C.ar   21  TRP21       0.0013
     42  CZ3      -10.3640    3.7270   -7.2650 C.ar   21  TRP21      -0.0002
     43  CE3       -9.2810    4.3830   -6.7050 C.ar   21  TRP21      -0.0030
     44  CD2       -9.0950    4.3440   -5.3390 C.ar   21  TRP21      -0.0059
     45  C         -4.8510    6.8160   -5.3910 C.2    21  TRP21       0.3842
     46  O         -5.0400    8.0490   -5.1500 O.co2  21  TRP21      -0.2437
     47  OXT       -3.9720    6.3760   -6.1010 O.co2  21  TRP21      -0.2437
@<TRIPOS>BOND
     1    42    43   ar
     2    42    41   ar
     3    43    44   ar
     4    41    40   ar
     5    47    45   ar
     6    45    46   ar
     7    45    34    1
     8    44    39   ar
     9    44    36    1
    10    40    39   ar
    11    35    34    1
    12    35    36    1
    13    34    33    1
    14    39    38    1
    15    36    37    1
    16     5     4    1
    17    38    37    1
    18    33    31   am
    19     8     7    2
    20    32    31    2
    21    31    26    1
    22     2     7    1
    23     2     3    1
    24     2     1    1
    25     4     3    1
    26     4     6    1
    27     7     9   am
    28    30    29    1
    29    26    27    1
    30    26    25    1
    31    29    27    1
    32    27    28    1
    33     9    10    1
    34    16    15    2
    35    25    23   am
    36    10    15    1
    37    10    11    1
    38    15    17   am
    39    23    24    2
    40    23    18    1
    41    17    18    1
    42    13    12   ar
    43    11    12    1
    44    12    14   ar
    45    18    19    1
    46    19    20    1
    47    19    21    1
    48    21    22    1
