@<TRIPOS>MOLECULE
../1EDN/PCA1_17-21_NOBACKBONE.pdb
 26 23 0 0 0
SMALL
GASTEIGER

@<TRIPOS>ATOM
      1  CB        -6.0770   -2.3450   -1.7480 C.3    17  LEU17       0.0000
      2  CG        -7.4170   -3.0590   -2.1890 C.3    17  LEU17       0.0000
      3  CD1       -7.4920   -3.1930   -3.7220 C.3    17  LEU17       0.0000
      4  CD2       -7.5340   -4.4610   -1.6100 C.3    17  LEU17       0.0000
      5  CB        -8.8290    0.4520    1.4200 C.3    18  ASP18       0.1258
      6  CG        -9.9140    1.2760    2.0640 C.2    18  ASP18       0.3654
      7  OD1      -10.8560    1.7240    1.3430 O.co2  18  ASP18      -0.2456
      8  OD2       -9.7710    1.5960    3.2830 O.co2  18  ASP18      -0.2456
      9  CB        -5.0730    3.3500    3.1520 C.3    19  ILE19       0.0000
     10  CG2       -4.5850    4.5470    3.9530 C.3    19  ILE19       0.0000
     11  CG1       -5.6210    2.1420    3.9730 C.3    19  ILE19       0.0000
     12  CD1       -6.7460    2.5740    4.8760 C.3    19  ILE19       0.0000
     13  CB        -2.8480    5.4620   -0.8180 C.3    20  ILE20       0.0000
     14  CG2       -2.5210    6.1670    0.5290 C.3    20  ILE20       0.0000
     15  CG1       -1.9270    4.2500   -0.9510 C.3    20  ILE20       0.0000
     16  CD1       -0.4520    4.4090   -1.0350 C.3    20  ILE20       0.0000
     17  CB        -7.1930    6.0870   -4.6010 C.3    21  TRP21       0.0066
     18  CG        -8.1480    4.9210   -4.3560 C.3    21  TRP21       0.0452
     19  CD1       -8.4270    4.3170   -3.1580 C.3    21  TRP21       0.1165
     20  NE1       -9.4680    3.4340   -3.3480 N.pl3  21  TRP21      -0.2376
     21  CE2      -10.0400    3.5420   -4.5600 C.ar   21  TRP21       0.0614
     22  CZ2      -11.2420    2.9770   -5.0990 C.ar   21  TRP21       0.0158
     23  CH2      -11.3060    3.0240   -6.5170 C.ar   21  TRP21       0.0013
     24  CZ3      -10.3640    3.7270   -7.2650 C.ar   21  TRP21      -0.0002
     25  CE3       -9.2810    4.3830   -6.7050 C.ar   21  TRP21      -0.0030
     26  CD2       -9.0950    4.3440   -5.3390 C.ar   21  TRP21      -0.0059
@<TRIPOS>BOND
     1    24    25   ar
     2    24    23   ar
     3    25    26   ar
     4    23    22   ar
     5    26    21   ar
     6    26    18    1
     7    22    21   ar
     8    17    18    1
     9    21    20    1
    10    18    19    1
    11     3     2    1
    12    20    19    1
    13     2     1    1
    14     2     4    1
    15    16    15    1
    16    15    13    1
    17    13    14    1
    18     7     6   ar
    19     5     6    1
    20     6     8   ar
    21     9    10    1
    22     9    11    1
    23    11    12    1
@<TRIPOS>MOLECULE
108002
 64 68 0 0 0
SMALL
GASTEIGER

@<TRIPOS>ATOM
      1 O          -5.3981    4.0452   -1.9583 O.co2   1  LIG11      -0.5495
      2 O          -7.2373    5.3839   -2.0918 O.co2   1  LIG11      -0.5495
      3 O          -6.7390   -2.9074   -2.6325 O.3     1  LIG11      -0.4920
      4 O          -6.5863    3.0116    1.6239 O.3     1  LIG11      -0.4858
      5 O          -9.5392    4.5678   -7.4792 O.3     1  LIG11      -0.4526
      6 O         -11.8028    4.3112   -6.6807 O.3     1  LIG11      -0.4526
      7 O         -10.4123    0.6535    3.4714 O.3     1  LIG11      -0.4950
      8 O          -6.7817    3.8170    4.4381 O.co2   1  LIG11      -0.5463
      9 O          -4.5154    3.9463    4.3162 O.co2   1  LIG11      -0.5463
     10 C          -7.5626    3.0586   -1.8829 C.3     1  LIG11       0.0203
     11 C          -7.0445    1.8811   -1.0192 C.3     1  LIG11       0.0218
     12 C          -7.5421    2.6259   -3.3763 C.3     1  LIG11       0.0184
     13 C          -7.0401    0.7198   -2.0091 C.ar    1  LIG11      -0.0320
     14 C          -7.3833    1.1284   -3.2978 C.ar    1  LIG11      -0.0353
     15 C          -8.7405    3.0640   -4.2110 C.ar    1  LIG11      -0.0356
     16 C          -7.9357    1.6136    0.2060 C.ar    1  LIG11       0.0026
     17 C          -6.6414    4.2771   -1.9399 C.2     1  LIG11       0.0466
     18 C          -6.7696   -0.6248   -1.7449 C.ar    1  LIG11      -0.0159
     19 C          -7.4560    0.2158   -4.3437 C.ar    1  LIG11      -0.0542
     20 C          -6.9097   -1.5561   -2.7786 C.ar    1  LIG11       0.1208
     21 C          -7.6291    2.1307    1.4781 C.ar    1  LIG11       0.1283
     22 C          -8.5086    3.6294   -5.4798 C.ar    1  LIG11      -0.0124
     23 C         -10.0723    2.9021   -3.7634 C.ar    1  LIG11      -0.0543
     24 C          -7.2239   -1.1322   -4.0763 C.ar    1  LIG11      -0.0196
     25 C          -9.0966    0.8164    0.0910 C.ar    1  LIG11      -0.0510
     26 C          -9.5933    4.0139   -6.2372 C.ar    1  LIG11       0.1665
     27 C         -11.1554    3.3104   -4.5513 C.ar    1  LIG11      -0.0159
     28 C          -8.4496    1.8369    2.5788 C.ar    1  LIG11       0.0221
     29 C          -9.8844    0.5021    1.2024 C.ar    1  LIG11      -0.0194
     30 C         -10.8819    3.8624   -5.7836 C.ar    1  LIG11       0.1662
     31 C          -9.5650    1.0124    2.4551 C.ar    1  LIG11       0.1236
     32 C          -7.2620   -3.4454   -1.4147 C.3     1  LIG11       0.0893
     33 C         -10.9366    4.8128   -7.7185 C.3     1  LIG11       0.2332
     34 C          -5.6358    2.6554    2.6573 C.3     1  LIG11       0.1287
     35 C          -7.9478   -4.7653   -1.7612 C.3     1  LIG11      -0.0215
     36 C          -5.6599    3.5946    3.8900 C.2     1  LIG11       0.0789
     37 C         -10.1892    1.3102    4.7177 C.3     1  LIG11       0.0788
     38 C          -8.4937   -5.4664   -0.5313 C.3     1  LIG11      -0.0622
     39 H          -8.5525    3.3889   -1.5460 H       1  LIG11       0.0379
     40 H          -6.0102    2.0226   -0.6849 H       1  LIG11       0.0405
     41 H          -6.6339    2.9817   -3.8848 H       1  LIG11       0.0404
     42 H          -6.4797   -0.9226   -0.7429 H       1  LIG11       0.0657
     43 H          -7.6920    0.5459   -5.3499 H       1  LIG11       0.0622
     44 H          -7.4987    3.7775   -5.8482 H       1  LIG11       0.0658
     45 H         -10.2627    2.4706   -2.7828 H       1  LIG11       0.0622
     46 H          -7.2959   -1.8600   -4.8783 H       1  LIG11       0.0654
     47 H          -9.3946    0.4198   -0.8763 H       1  LIG11       0.0623
     48 H         -12.1722    3.2060   -4.1950 H       1  LIG11       0.0655
     49 H          -8.2044    2.2912    3.5297 H       1  LIG11       0.0691
     50 H         -10.7573   -0.1311    1.0831 H       1  LIG11       0.0654
     51 H          -6.4273   -3.6145   -0.7255 H       1  LIG11       0.0696
     52 H          -7.9954   -2.7844   -0.9359 H       1  LIG11       0.0696
     53 H         -11.0921    5.8938   -7.8158 H       1  LIG11       0.1166
     54 H         -11.2162    4.3352   -8.6644 H       1  LIG11       0.1166
     55 H          -5.7518    1.6170    2.9914 H       1  LIG11       0.0760
     56 H          -4.6466    2.7273    2.1902 H       1  LIG11       0.0760
     57 H          -8.7650   -4.5715   -2.4674 H       1  LIG11       0.0295
     58 H          -7.2471   -5.4242   -2.2880 H       1  LIG11       0.0295
     59 H         -10.9660    0.9750    5.4120 H       1  LIG11       0.0660
     60 H          -9.2212    1.0298    5.1465 H       1  LIG11       0.0660
     61 H         -10.2839    2.3968    4.6166 H       1  LIG11       0.0660
     62 H          -9.1968   -4.8243    0.0087 H       1  LIG11       0.0231
     63 H          -9.0222   -6.3805   -0.8199 H       1  LIG11       0.0231
     64 H          -7.6845   -5.7429    0.1515 H       1  LIG11       0.0231
@<TRIPOS>BOND
     1     1    17   ar
     2     2    17   ar
     3     3    20    1
     4     3    32    1
     5     4    21    1
     6     4    34    1
     7     5    26    1
     8     5    33    1
     9     6    30    1
    10     6    33    1
    11     7    31    1
    12     7    37    1
    13     8    36   ar
    14     9    36   ar
    15    10    11    1
    16    10    12    1
    17    10    17    1
    18    11    13    1
    19    11    16    1
    20    12    14    1
    21    12    15    1
    22    13    14   ar
    23    13    18   ar
    24    14    19   ar
    25    15    22   ar
    26    15    23   ar
    27    16    21   ar
    28    16    25   ar
    29    18    20   ar
    30    19    24   ar
    31    20    24   ar
    32    21    28   ar
    33    22    26   ar
    34    23    27   ar
    35    25    29   ar
    36    26    30   ar
    37    27    30   ar
    38    28    31   ar
    39    29    31   ar
    40    32    35    1
    41    34    36    1
    42    35    38    1
    43    10    39    1
    44    11    40    1
    45    12    41    1
    46    18    42    1
    47    19    43    1
    48    22    44    1
    49    23    45    1
    50    24    46    1
    51    25    47    1
    52    27    48    1
    53    28    49    1
    54    29    50    1
    55    32    51    1
    56    32    52    1
    57    33    53    1
    58    33    54    1
    59    34    55    1
    60    34    56    1
    61    35    57    1
    62    35    58    1
    63    37    59    1
    64    37    60    1
    65    37    61    1
    66    38    62    1
    67    38    63    1
    68    38    64    1
@<TRIPOS>MOLECULE
../1EDN/PCA1_17-21.pdb
 47 48 0 0 0
SMALL
GASTEIGER

@<TRIPOS>ATOM
      1  N         -4.6470   -0.3680   -1.6750 N.3    17  LEU17      -0.1231
      2  CA        -5.8920   -0.8550   -2.2480 C.3    17  LEU17       0.1693
      3  CB        -6.0770   -2.3450   -1.7480 C.3    17  LEU17       0.0284
      4  CG        -7.4170   -3.0590   -2.1890 C.3    17  LEU17       0.0019
      5  CD1       -7.4920   -3.1930   -3.7220 C.3    17  LEU17       0.0001
      6  CD2       -7.5340   -4.4610   -1.6100 C.3    17  LEU17       0.0001
      7  C         -7.0080    0.1010   -1.8270 C.2    17  LEU17       0.2592
      8  O         -7.6220    0.6590   -2.7680 O.2    17  LEU17      -0.2718
      9  N         -7.2890    0.1920   -0.5460 N.am   18  ASP18      -0.1960
     10  CA        -8.2730    1.1070    0.1120 C.3    18  ASP18       0.1840
     11  CB        -8.8290    0.4520    1.4200 C.3    18  ASP18       0.1450
     12  CG        -9.9140    1.2760    2.0640 C.2    18  ASP18       0.3671
     13  OD1      -10.8560    1.7240    1.3430 O.co2  18  ASP18      -0.2456
     14  OD2       -9.7710    1.5960    3.2830 O.co2  18  ASP18      -0.2456
     15  C         -7.6270    2.4530    0.4740 C.2    18  ASP18       0.2622
     16  O         -8.0770    3.4620   -0.0480 O.2    18  ASP18      -0.2715
     17  N         -6.6010    2.4770    1.3340 N.am   19  ILE19      -0.1963
     18  CA        -6.1660    3.6270    2.0790 C.3    19  ILE19       0.1727
     19  CB        -5.0730    3.3500    3.1520 C.3    19  ILE19       0.0290
     20  CG2       -4.5850    4.5470    3.9530 C.3    19  ILE19       0.0023
     21  CG1       -5.6210    2.1420    3.9730 C.3    19  ILE19       0.0022
     22  CD1       -6.7460    2.5740    4.8760 C.3    19  ILE19       0.0001
     23  C         -5.6740    4.7260    1.1170 C.2    19  ILE19       0.2616
     24  O         -5.9640    5.8590    1.4260 O.2    19  ILE19      -0.2715
     25  N         -4.8940    4.3400    0.1060 N.am   20  ILE20      -0.1963
     26  CA        -4.3700    5.1770   -0.9560 C.3    20  ILE20       0.1727
     27  CB        -2.8480    5.4620   -0.8180 C.3    20  ILE20       0.0290
     28  CG2       -2.5210    6.1670    0.5290 C.3    20  ILE20       0.0023
     29  CG1       -1.9270    4.2500   -0.9510 C.3    20  ILE20       0.0022
     30  CD1       -0.4520    4.4090   -1.0350 C.3    20  ILE20       0.0001
     31  C         -4.8260    4.7960   -2.3980 C.2    20  ILE20       0.2617
     32  O         -4.8210    3.6210   -2.7490 O.2    20  ILE20      -0.2715
     33  N         -5.1950    5.7710   -3.1960 N.am   21  TRP21      -0.1941
     34  CA        -5.6960    5.8160   -4.5740 C.3    21  TRP21       0.1982
     35  CB        -7.1930    6.0870   -4.6010 C.3    21  TRP21       0.0394
     36  CG        -8.1480    4.9210   -4.3560 C.3    21  TRP21       0.0475
     37  CD1       -8.4270    4.3170   -3.1580 C.3    21  TRP21       0.1166
     38  NE1       -9.4680    3.4340   -3.3480 N.pl3  21  TRP21      -0.2376
     39  CE2      -10.0400    3.5420   -4.5600 C.ar   21  TRP21       0.0614
     40  CZ2      -11.2420    2.9770   -5.0990 C.ar   21  TRP21       0.0158
     41  CH2      -11.3060    3.0240   -6.5170 C.ar   21  TRP21       0.0013
     42  CZ3      -10.3640    3.7270   -7.2650 C.ar   21  TRP21      -0.0002
     43  CE3       -9.2810    4.3830   -6.7050 C.ar   21  TRP21      -0.0030
     44  CD2       -9.0950    4.3440   -5.3390 C.ar   21  TRP21      -0.0059
     45  C         -4.8510    6.8160   -5.3910 C.2    21  TRP21       0.3842
     46  O         -5.0400    8.0490   -5.1500 O.co2  21  TRP21      -0.2437
     47  OXT       -3.9720    6.3760   -6.1010 O.co2  21  TRP21      -0.2437
@<TRIPOS>BOND
     1    42    43   ar
     2    42    41   ar
     3    43    44   ar
     4    41    40   ar
     5    47    45   ar
     6    45    46   ar
     7    45    34    1
     8    44    39   ar
     9    44    36    1
    10    40    39   ar
    11    35    34    1
    12    35    36    1
    13    34    33    1
    14    39    38    1
    15    36    37    1
    16     5     4    1
    17    38    37    1
    18    33    31   am
    19     8     7    2
    20    32    31    2
    21    31    26    1
    22     2     7    1
    23     2     3    1
    24     2     1    1
    25     4     3    1
    26     4     6    1
    27     7     9   am
    28    30    29    1
    29    26    27    1
    30    26    25    1
    31    29    27    1
    32    27    28    1
    33     9    10    1
    34    16    15    2
    35    25    23   am
    36    10    15    1
    37    10    11    1
    38    15    17   am
    39    23    24    2
    40    23    18    1
    41    17    18    1
    42    13    12   ar
    43    11    12    1
    44    12    14   ar
    45    18    19    1
    46    19    20    1
    47    19    21    1
    48    21    22    1
