@<TRIPOS>MOLECULE
../1EDN/PCA1_17-21_NOBACKBONE.pdb
 26 23 0 0 0
SMALL
GASTEIGER

@<TRIPOS>ATOM
      1  CB        -6.0770   -2.3450   -1.7480 C.3    17  LEU17       0.0000
      2  CG        -7.4170   -3.0590   -2.1890 C.3    17  LEU17       0.0000
      3  CD1       -7.4920   -3.1930   -3.7220 C.3    17  LEU17       0.0000
      4  CD2       -7.5340   -4.4610   -1.6100 C.3    17  LEU17       0.0000
      5  CB        -8.8290    0.4520    1.4200 C.3    18  ASP18       0.1258
      6  CG        -9.9140    1.2760    2.0640 C.2    18  ASP18       0.3654
      7  OD1      -10.8560    1.7240    1.3430 O.co2  18  ASP18      -0.2456
      8  OD2       -9.7710    1.5960    3.2830 O.co2  18  ASP18      -0.2456
      9  CB        -5.0730    3.3500    3.1520 C.3    19  ILE19       0.0000
     10  CG2       -4.5850    4.5470    3.9530 C.3    19  ILE19       0.0000
     11  CG1       -5.6210    2.1420    3.9730 C.3    19  ILE19       0.0000
     12  CD1       -6.7460    2.5740    4.8760 C.3    19  ILE19       0.0000
     13  CB        -2.8480    5.4620   -0.8180 C.3    20  ILE20       0.0000
     14  CG2       -2.5210    6.1670    0.5290 C.3    20  ILE20       0.0000
     15  CG1       -1.9270    4.2500   -0.9510 C.3    20  ILE20       0.0000
     16  CD1       -0.4520    4.4090   -1.0350 C.3    20  ILE20       0.0000
     17  CB        -7.1930    6.0870   -4.6010 C.3    21  TRP21       0.0066
     18  CG        -8.1480    4.9210   -4.3560 C.3    21  TRP21       0.0452
     19  CD1       -8.4270    4.3170   -3.1580 C.3    21  TRP21       0.1165
     20  NE1       -9.4680    3.4340   -3.3480 N.pl3  21  TRP21      -0.2376
     21  CE2      -10.0400    3.5420   -4.5600 C.ar   21  TRP21       0.0614
     22  CZ2      -11.2420    2.9770   -5.0990 C.ar   21  TRP21       0.0158
     23  CH2      -11.3060    3.0240   -6.5170 C.ar   21  TRP21       0.0013
     24  CZ3      -10.3640    3.7270   -7.2650 C.ar   21  TRP21      -0.0002
     25  CE3       -9.2810    4.3830   -6.7050 C.ar   21  TRP21      -0.0030
     26  CD2       -9.0950    4.3440   -5.3390 C.ar   21  TRP21      -0.0059
@<TRIPOS>BOND
     1    24    25   ar
     2    24    23   ar
     3    25    26   ar
     4    23    22   ar
     5    26    21   ar
     6    26    18    1
     7    22    21   ar
     8    17    18    1
     9    21    20    1
    10    18    19    1
    11     3     2    1
    12    20    19    1
    13     2     1    1
    14     2     4    1
    15    16    15    1
    16    15    13    1
    17    13    14    1
    18     7     6   ar
    19     5     6    1
    20     6     8   ar
    21     9    10    1
    22     9    11    1
    23    11    12    1
@<TRIPOS>MOLECULE
23693553
 97 99 0 0 0
SMALL
GASTEIGER

@<TRIPOS>ATOM
      1 O          -2.7817    2.6691    1.7700 O.2     1  LIG11      -0.2526
      2 O          -4.0209    6.4983   -1.4851 O.2     1  LIG11      -0.2731
      3 O          -5.3180    3.5841   -3.6485 O.2     1  LIG11      -0.2689
      4 O          -7.4223    3.3385    0.8015 O.co2   1  LIG11      -0.5479
      5 OXT        -6.7090    5.3005   -0.0925 O.co2   1  LIG11      -0.5479
      6 O         -11.3198    2.8376   -6.9347 O.3     1  LIG11      -0.4515
      7 O          -9.9557    4.1152   -8.2929 O.2     1  LIG11      -0.2227
      8 N          -4.4855    3.2526    3.1900 N.am    1  LIG11      -0.2801
      9 N          -3.7577    4.6965    1.4680 N.am    1  LIG11      -0.2879
     10 N          -4.8051    4.3339   -1.5421 N.am    1  LIG11      -0.2273
     11 N          -6.7197    6.6066   -2.1715 N.4     1  LIG11       0.2276
     12 N          -9.6171    4.0746   -6.0280 N.ar    1  LIG11      -0.2526
     13 C          -5.5085    4.2053    3.6826 C.3     1  LIG11       0.0249
     14 C          -4.4185    1.8757    3.7390 C.3     1  LIG11       0.0249
     15 C          -6.6413    3.5990    4.5240 C.3     1  LIG11      -0.0344
     16 C          -5.6494    1.3790    4.5123 C.3     1  LIG11      -0.0344
     17 C          -6.9038    2.1508    4.1688 C.3     1  LIG11      -0.0497
     18 CA         -3.0729    5.1013    0.2212 C.3     1  LIG11       0.1019
     19 C          -0.8722    4.8181   -1.2890 C.3     1  LIG11      -0.0356
     20 C          -1.8367    4.2702   -0.1909 C.3     1  LIG11      -0.0210
     21 C          -3.6085    3.5040    2.1312 C.2     1  LIG11       0.3033
     22 C          -4.8604    5.3532    4.4654 C.3     1  LIG11      -0.0464
     23 C          -3.1656    1.6685    4.6017 C.3     1  LIG11      -0.0464
     24 C          -4.0298    5.3620   -0.9819 C.2     1  LIG11       0.2429
     25 C          -1.4472    4.6468   -2.7056 C.3     1  LIG11      -0.0600
     26 C          -0.5029    6.2911   -1.0566 C.3     1  LIG11      -0.0600
     27 C           0.4274    3.9821   -1.2182 C.3     1  LIG11      -0.0600
     28 CA         -5.4615    3.3411   -0.6424 C.3     1  LIG11       0.0730
     29 C          -5.9506    2.0225   -1.2685 C.3     1  LIG11      -0.0286
     30 C          -5.3844    4.4870   -2.8090 C.2     1  LIG11       0.2708
     31 CA         -5.9505    5.8677   -3.2222 C.3     1  LIG11       0.0579
     32 C          -4.7921    1.1219   -1.7146 C.3     1  LIG11      -0.0513
     33 C          -6.7160    5.8589   -4.5541 C.3     1  LIG11       0.0261
     34 C          -6.6391    4.0376    0.1233 C.2     1  LIG11       0.0626
     35 C          -7.9753    5.0573   -4.7741 C.ar    1  LIG11      -0.0158
     36 C          -5.2741   -0.2114   -2.2925 C.3     1  LIG11      -0.0558
     37 C          -8.8765    4.3628   -3.9047 C.ar    1  LIG11       0.0038
     38 C          -8.4870    4.8764   -6.0466 C.ar    1  LIG11       0.0202
     39 C          -9.8851    3.7726   -4.6917 C.ar    1  LIG11       0.0598
     40 C          -5.8391   -1.1529   -1.2381 C.3     1  LIG11      -0.0653
     41 C          -8.9491    4.1580   -2.5122 C.ar    1  LIG11      -0.0523
     42 C         -10.9313    3.0270   -4.0987 C.ar    1  LIG11      -0.0371
     43 C          -9.9684    3.4051   -1.9269 C.ar    1  LIG11      -0.0611
     44 C         -10.3039    3.6898   -7.2019 C.2     1  LIG11       0.4196
     45 C         -10.9555    2.8498   -2.7155 C.ar    1  LIG11      -0.0598
     46 C         -12.0511    2.3678   -8.0686 C.3     1  LIG11       0.0835
     47 H          -4.5288    5.2865    1.7376 H       1  LIG11       0.1510
     48 H1         -6.2503    7.4772   -1.9080 H       1  LIG11       0.2002
     49 H2         -6.7121    6.0765   -1.2557 H       1  LIG11       0.2002
     50 H3         -7.7108    6.7583   -2.3710 H       1  LIG11       0.2002
     51 H          -5.9928    4.6347    2.8008 H       1  LIG11       0.0498
     52 H          -4.3253    1.2091    2.8694 H       1  LIG11       0.0498
     53 H          -7.5549    4.1904    4.3868 H       1  LIG11       0.0283
     54 H          -6.3994    3.6630    5.5935 H       1  LIG11       0.0283
     55 H          -5.4754    1.4549    5.5942 H       1  LIG11       0.0283
     56 H          -5.7999    0.3110    4.3115 H       1  LIG11       0.0283
     57 H          -7.1572    2.0362    3.1104 H       1  LIG11       0.0266
     58 H          -7.7485    1.7681    4.7523 H       1  LIG11       0.0266
     59 HA         -2.7065    6.0989    0.4987 H       1  LIG11       0.0595
     60 H          -2.1615    3.2673   -0.4975 H       1  LIG11       0.0293
     61 H          -1.2270    4.1433    0.7146 H       1  LIG11       0.0293
     62 H          -4.3415    4.9763    5.3536 H       1  LIG11       0.0248
     63 H          -5.6178    6.0742    4.7919 H       1  LIG11       0.0248
     64 H          -4.1244    5.8961    3.8656 H       1  LIG11       0.0248
     65 H          -3.1786    2.3287    5.4751 H       1  LIG11       0.0248
     66 H          -2.2444    1.8758    4.0497 H       1  LIG11       0.0248
     67 H          -3.1081    0.6324    4.9538 H       1  LIG11       0.0248
     68 H          -1.8306    3.6320   -2.8587 H       1  LIG11       0.0235
     69 H          -0.6770    4.8247   -3.4656 H       1  LIG11       0.0235
     70 H          -2.2539    5.3512   -2.9167 H       1  LIG11       0.0235
     71 H          -0.1137    6.4458   -0.0443 H       1  LIG11       0.0235
     72 H          -1.3624    6.9542   -1.1931 H       1  LIG11       0.0235
     73 H           0.2691    6.6193   -1.7624 H       1  LIG11       0.0235
     74 H           0.9161    4.0897   -0.2431 H       1  LIG11       0.0235
     75 H           1.1475    4.2973   -1.9819 H       1  LIG11       0.0235
     76 H           0.2203    2.9172   -1.3738 H       1  LIG11       0.0235
     77 HA         -4.7345    3.0370    0.0971 H       1  LIG11       0.0567
     78 H          -6.6394    2.2036   -2.0997 H       1  LIG11       0.0287
     79 H          -6.5339    1.4732   -0.5210 H       1  LIG11       0.0287
     80 HA         -5.0803    6.5010   -3.4313 H       1  LIG11       0.0952
     81 H          -4.1204    0.9320   -0.8684 H       1  LIG11       0.0266
     82 H          -4.1948    1.6339   -2.4762 H       1  LIG11       0.0266
     83 H          -6.0030    5.5333   -5.3275 H       1  LIG11       0.0374
     84 H          -6.9578    6.9013   -4.8087 H       1  LIG11       0.0374
     85 H          -4.4259   -0.7080   -2.7783 H       1  LIG11       0.0263
     86 H          -6.0273   -0.0346   -3.0690 H       1  LIG11       0.0263
     87 H          -8.1147    5.2280   -7.0019 H       1  LIG11       0.0818
     88 H          -5.1017   -1.3482   -0.4526 H       1  LIG11       0.0230
     89 H          -6.1077   -2.1108   -1.6945 H       1  LIG11       0.0230
     90 H          -6.7401   -0.7457   -0.7706 H       1  LIG11       0.0230
     91 H          -8.2090    4.5562   -1.8436 H       1  LIG11       0.0624
     92 H         -11.7206    2.5713   -4.6881 H       1  LIG11       0.0638
     93 H          -9.9683    3.2509   -0.8482 H       1  LIG11       0.0618
     94 H         -11.7470    2.2623   -2.2569 H       1  LIG11       0.0618
     95 H         -12.3319    1.3280   -7.8788 H       1  LIG11       0.0661
     96 H         -11.4735    2.4002   -8.9977 H       1  LIG11       0.0661
     97 H         -12.9632    2.9620   -8.1723 H       1  LIG11       0.0661
@<TRIPOS>BOND
     1     1    21    2
     2     2    24    2
     3     3    30    2
     4     4    34   ar
     5     5    34   ar
     6     6    44    1
     7     6    46    1
     8     7    44    2
     9     8    13    1
    10     8    14    1
    11     9    21   am
    12    10    24   am
    13    10    30   am
    14    12    39   ar
    15    12    38   ar
    16    12    44   am
    17    13    15    1
    18    13    22    1
    19    14    16    1
    20    14    23    1
    21    15    17    1
    22    16    17    1
    23    18     9    1
    24    18    24    1
    25    18    20    1
    26    19    20    1
    27    19    27    1
    28    19    26    1
    29    19    25    1
    30    21     8   am
    31    28    34    1
    32    28    29    1
    33    28    10    1
    34    29    32    1
    35    31    33    1
    36    31    11    1
    37    31    30    1
    38    32    36    1
    39    33    35    1
    40    35    38   ar
    41    35    37   ar
    42    36    40    1
    43    37    39   ar
    44    37    41   ar
    45    39    42   ar
    46    41    43   ar
    47    42    45   ar
    48    43    45   ar
    49     9    47    1
    50    11    48    1
    51    11    49    1
    52    11    50    1
    53    13    51    1
    54    14    52    1
    55    15    53    1
    56    15    54    1
    57    16    55    1
    58    16    56    1
    59    17    57    1
    60    17    58    1
    61    18    59    1
    62    20    60    1
    63    20    61    1
    64    22    62    1
    65    22    63    1
    66    22    64    1
    67    23    65    1
    68    23    66    1
    69    23    67    1
    70    25    68    1
    71    25    69    1
    72    25    70    1
    73    26    71    1
    74    26    72    1
    75    26    73    1
    76    27    74    1
    77    27    75    1
    78    27    76    1
    79    28    77    1
    80    29    78    1
    81    29    79    1
    82    31    80    1
    83    32    81    1
    84    32    82    1
    85    33    83    1
    86    33    84    1
    87    36    85    1
    88    36    86    1
    89    38    87    1
    90    40    88    1
    91    40    89    1
    92    40    90    1
    93    41    91    1
    94    42    92    1
    95    43    93    1
    96    45    94    1
    97    46    95    1
    98    46    96    1
    99    46    97    1
@<TRIPOS>MOLECULE
../1EDN/PCA1_17-21.pdb
 47 48 0 0 0
SMALL
GASTEIGER

@<TRIPOS>ATOM
      1  N         -4.6470   -0.3680   -1.6750 N.3    17  LEU17      -0.1231
      2  CA        -5.8920   -0.8550   -2.2480 C.3    17  LEU17       0.1693
      3  CB        -6.0770   -2.3450   -1.7480 C.3    17  LEU17       0.0284
      4  CG        -7.4170   -3.0590   -2.1890 C.3    17  LEU17       0.0019
      5  CD1       -7.4920   -3.1930   -3.7220 C.3    17  LEU17       0.0001
      6  CD2       -7.5340   -4.4610   -1.6100 C.3    17  LEU17       0.0001
      7  C         -7.0080    0.1010   -1.8270 C.2    17  LEU17       0.2592
      8  O         -7.6220    0.6590   -2.7680 O.2    17  LEU17      -0.2718
      9  N         -7.2890    0.1920   -0.5460 N.am   18  ASP18      -0.1960
     10  CA        -8.2730    1.1070    0.1120 C.3    18  ASP18       0.1840
     11  CB        -8.8290    0.4520    1.4200 C.3    18  ASP18       0.1450
     12  CG        -9.9140    1.2760    2.0640 C.2    18  ASP18       0.3671
     13  OD1      -10.8560    1.7240    1.3430 O.co2  18  ASP18      -0.2456
     14  OD2       -9.7710    1.5960    3.2830 O.co2  18  ASP18      -0.2456
     15  C         -7.6270    2.4530    0.4740 C.2    18  ASP18       0.2622
     16  O         -8.0770    3.4620   -0.0480 O.2    18  ASP18      -0.2715
     17  N         -6.6010    2.4770    1.3340 N.am   19  ILE19      -0.1963
     18  CA        -6.1660    3.6270    2.0790 C.3    19  ILE19       0.1727
     19  CB        -5.0730    3.3500    3.1520 C.3    19  ILE19       0.0290
     20  CG2       -4.5850    4.5470    3.9530 C.3    19  ILE19       0.0023
     21  CG1       -5.6210    2.1420    3.9730 C.3    19  ILE19       0.0022
     22  CD1       -6.7460    2.5740    4.8760 C.3    19  ILE19       0.0001
     23  C         -5.6740    4.7260    1.1170 C.2    19  ILE19       0.2616
     24  O         -5.9640    5.8590    1.4260 O.2    19  ILE19      -0.2715
     25  N         -4.8940    4.3400    0.1060 N.am   20  ILE20      -0.1963
     26  CA        -4.3700    5.1770   -0.9560 C.3    20  ILE20       0.1727
     27  CB        -2.8480    5.4620   -0.8180 C.3    20  ILE20       0.0290
     28  CG2       -2.5210    6.1670    0.5290 C.3    20  ILE20       0.0023
     29  CG1       -1.9270    4.2500   -0.9510 C.3    20  ILE20       0.0022
     30  CD1       -0.4520    4.4090   -1.0350 C.3    20  ILE20       0.0001
     31  C         -4.8260    4.7960   -2.3980 C.2    20  ILE20       0.2617
     32  O         -4.8210    3.6210   -2.7490 O.2    20  ILE20      -0.2715
     33  N         -5.1950    5.7710   -3.1960 N.am   21  TRP21      -0.1941
     34  CA        -5.6960    5.8160   -4.5740 C.3    21  TRP21       0.1982
     35  CB        -7.1930    6.0870   -4.6010 C.3    21  TRP21       0.0394
     36  CG        -8.1480    4.9210   -4.3560 C.3    21  TRP21       0.0475
     37  CD1       -8.4270    4.3170   -3.1580 C.3    21  TRP21       0.1166
     38  NE1       -9.4680    3.4340   -3.3480 N.pl3  21  TRP21      -0.2376
     39  CE2      -10.0400    3.5420   -4.5600 C.ar   21  TRP21       0.0614
     40  CZ2      -11.2420    2.9770   -5.0990 C.ar   21  TRP21       0.0158
     41  CH2      -11.3060    3.0240   -6.5170 C.ar   21  TRP21       0.0013
     42  CZ3      -10.3640    3.7270   -7.2650 C.ar   21  TRP21      -0.0002
     43  CE3       -9.2810    4.3830   -6.7050 C.ar   21  TRP21      -0.0030
     44  CD2       -9.0950    4.3440   -5.3390 C.ar   21  TRP21      -0.0059
     45  C         -4.8510    6.8160   -5.3910 C.2    21  TRP21       0.3842
     46  O         -5.0400    8.0490   -5.1500 O.co2  21  TRP21      -0.2437
     47  OXT       -3.9720    6.3760   -6.1010 O.co2  21  TRP21      -0.2437
@<TRIPOS>BOND
     1    42    43   ar
     2    42    41   ar
     3    43    44   ar
     4    41    40   ar
     5    47    45   ar
     6    45    46   ar
     7    45    34    1
     8    44    39   ar
     9    44    36    1
    10    40    39   ar
    11    35    34    1
    12    35    36    1
    13    34    33    1
    14    39    38    1
    15    36    37    1
    16     5     4    1
    17    38    37    1
    18    33    31   am
    19     8     7    2
    20    32    31    2
    21    31    26    1
    22     2     7    1
    23     2     3    1
    24     2     1    1
    25     4     3    1
    26     4     6    1
    27     7     9   am
    28    30    29    1
    29    26    27    1
    30    26    25    1
    31    29    27    1
    32    27    28    1
    33     9    10    1
    34    16    15    2
    35    25    23   am
    36    10    15    1
    37    10    11    1
    38    15    17   am
    39    23    24    2
    40    23    18    1
    41    17    18    1
    42    13    12   ar
    43    11    12    1
    44    12    14   ar
    45    18    19    1
    46    19    20    1
    47    19    21    1
    48    21    22    1
