@<TRIPOS>MOLECULE
../1EDN/PCA1_17-21_NOBACKBONE.pdb
 26 23 0 0 0
SMALL
GASTEIGER

@<TRIPOS>ATOM
      1  CB        -6.0770   -2.3450   -1.7480 C.3    17  LEU17       0.0000
      2  CG        -7.4170   -3.0590   -2.1890 C.3    17  LEU17       0.0000
      3  CD1       -7.4920   -3.1930   -3.7220 C.3    17  LEU17       0.0000
      4  CD2       -7.5340   -4.4610   -1.6100 C.3    17  LEU17       0.0000
      5  CB        -8.8290    0.4520    1.4200 C.3    18  ASP18       0.1258
      6  CG        -9.9140    1.2760    2.0640 C.2    18  ASP18       0.3654
      7  OD1      -10.8560    1.7240    1.3430 O.co2  18  ASP18      -0.2456
      8  OD2       -9.7710    1.5960    3.2830 O.co2  18  ASP18      -0.2456
      9  CB        -5.0730    3.3500    3.1520 C.3    19  ILE19       0.0000
     10  CG2       -4.5850    4.5470    3.9530 C.3    19  ILE19       0.0000
     11  CG1       -5.6210    2.1420    3.9730 C.3    19  ILE19       0.0000
     12  CD1       -6.7460    2.5740    4.8760 C.3    19  ILE19       0.0000
     13  CB        -2.8480    5.4620   -0.8180 C.3    20  ILE20       0.0000
     14  CG2       -2.5210    6.1670    0.5290 C.3    20  ILE20       0.0000
     15  CG1       -1.9270    4.2500   -0.9510 C.3    20  ILE20       0.0000
     16  CD1       -0.4520    4.4090   -1.0350 C.3    20  ILE20       0.0000
     17  CB        -7.1930    6.0870   -4.6010 C.3    21  TRP21       0.0066
     18  CG        -8.1480    4.9210   -4.3560 C.3    21  TRP21       0.0452
     19  CD1       -8.4270    4.3170   -3.1580 C.3    21  TRP21       0.1165
     20  NE1       -9.4680    3.4340   -3.3480 N.pl3  21  TRP21      -0.2376
     21  CE2      -10.0400    3.5420   -4.5600 C.ar   21  TRP21       0.0614
     22  CZ2      -11.2420    2.9770   -5.0990 C.ar   21  TRP21       0.0158
     23  CH2      -11.3060    3.0240   -6.5170 C.ar   21  TRP21       0.0013
     24  CZ3      -10.3640    3.7270   -7.2650 C.ar   21  TRP21      -0.0002
     25  CE3       -9.2810    4.3830   -6.7050 C.ar   21  TRP21      -0.0030
     26  CD2       -9.0950    4.3440   -5.3390 C.ar   21  TRP21      -0.0059
@<TRIPOS>BOND
     1    24    25   ar
     2    24    23   ar
     3    25    26   ar
     4    23    22   ar
     5    26    21   ar
     6    26    18    1
     7    22    21   ar
     8    17    18    1
     9    21    20    1
    10    18    19    1
    11     3     2    1
    12    20    19    1
    13     2     1    1
    14     2     4    1
    15    16    15    1
    16    15    13    1
    17    13    14    1
    18     7     6   ar
    19     5     6    1
    20     6     8   ar
    21     9    10    1
    22     9    11    1
    23    11    12    1
@<TRIPOS>MOLECULE
178103
 66 70 0 0 0
SMALL
GASTEIGER

@<TRIPOS>ATOM
      1 O         -12.2897    1.7565   -3.7210 O.co2   1  LIG11      -0.5495
      2 O         -11.7349    3.4554   -2.3142 O.co2   1  LIG11      -0.5495
      3 O          -4.6438    4.4991   -2.1777 O.3     1  LIG11      -0.4920
      4 O          -9.0972    0.9749   -0.2240 O.3     1  LIG11      -0.4893
      5 O          -8.5893    3.9895   -9.2582 O.3     1  LIG11      -0.4526
      6 O         -10.8869    4.2742   -9.9414 O.3     1  LIG11      -0.4526
      7 O          -7.0932   -3.0004   -2.2891 O.3     1  LIG11      -0.4950
      8 O          -9.6302    0.9474    3.3786 O.3     1  LIG11      -0.3917
      9 C         -10.0856    2.5868   -3.7946 C.3     1  LIG11       0.0203
     10 C          -9.0632    2.3547   -2.6563 C.3     1  LIG11       0.0218
     11 C          -9.8141    3.9886   -4.3930 C.3     1  LIG11       0.0184
     12 C          -7.9609    3.3302   -3.0120 C.ar    1  LIG11      -0.0320
     13 C          -8.3898    4.2600   -3.9591 C.ar    1  LIG11      -0.0353
     14 C          -8.5728    0.9138   -2.5182 C.ar    1  LIG11       0.0025
     15 C         -10.0921    4.0302   -5.8948 C.ar    1  LIG11      -0.0356
     16 C         -11.4947    2.5947   -3.2070 C.2     1  LIG11       0.0466
     17 C          -6.7003    3.4338   -2.4336 C.ar    1  LIG11      -0.0159
     18 C          -7.5705    5.3233   -4.3198 C.ar    1  LIG11      -0.0542
     19 C          -8.5990    0.2510   -1.2733 C.ar    1  LIG11       0.1278
     20 C          -5.8600    4.4857   -2.8069 C.ar    1  LIG11       0.1208
     21 C          -9.0862    3.9206   -6.8714 C.ar    1  LIG11      -0.0124
     22 C          -6.2937    5.4220   -3.7562 C.ar    1  LIG11      -0.0196
     23 C         -11.4384    4.1706   -6.3180 C.ar    1  LIG11      -0.0543
     24 C          -8.0390    0.2331   -3.6262 C.ar    1  LIG11      -0.0510
     25 C          -9.4454    4.0239   -8.2001 C.ar    1  LIG11       0.1665
     26 C         -11.7769    4.2476   -7.6731 C.ar    1  LIG11      -0.0159
     27 C          -8.1212   -1.0636   -1.1625 C.ar    1  LIG11       0.0221
     28 C          -7.5612   -1.0723   -3.5039 C.ar    1  LIG11      -0.0194
     29 C         -10.7533    4.1873   -8.5902 C.ar    1  LIG11       0.1662
     30 C          -7.5991   -1.7274   -2.2750 C.ar    1  LIG11       0.1236
     31 C          -3.9237    5.7291   -2.2142 C.3     1  LIG11       0.0893
     32 C          -9.5090    4.1767  -10.3515 C.3     1  LIG11       0.2332
     33 C          -9.0957    0.4017    1.0763 C.3     1  LIG11       0.1126
     34 C          -2.7891    5.6607   -1.1941 C.3     1  LIG11      -0.0215
     35 C          -9.6936    1.4236    2.0363 C.3     1  LIG11       0.0783
     36 C          -7.0917   -3.7030   -1.0537 C.3     1  LIG11       0.0788
     37 C          -3.3067    5.5199    0.2312 C.3     1  LIG11      -0.0622
     38 H         -10.0645    1.6285    3.9208 H       1  LIG11       0.2095
     39 H         -10.0200    1.8137   -4.5705 H       1  LIG11       0.0379
     40 H          -9.4733    2.7040   -1.7020 H       1  LIG11       0.0405
     41 H         -10.4244    4.7732   -3.9250 H       1  LIG11       0.0404
     42 H          -6.3829    2.7196   -1.6799 H       1  LIG11       0.0657
     43 H          -7.9169    6.0682   -5.0299 H       1  LIG11       0.0622
     44 H          -8.0459    3.7680   -6.6075 H       1  LIG11       0.0658
     45 H          -5.6617    6.2439   -4.0724 H       1  LIG11       0.0654
     46 H         -12.2337    4.2046   -5.5713 H       1  LIG11       0.0622
     47 H          -7.9888    0.7238   -4.5958 H       1  LIG11       0.0623
     48 H         -12.8101    4.3486   -7.9823 H       1  LIG11       0.0655
     49 H          -8.1594   -1.5659   -0.2062 H       1  LIG11       0.0691
     50 H          -7.1581   -1.5780   -4.3768 H       1  LIG11       0.0654
     51 H          -3.4962    5.8710   -3.2136 H       1  LIG11       0.0696
     52 H          -4.5760    6.5764   -1.9686 H       1  LIG11       0.0696
     53 H          -9.2376    5.0977  -10.8815 H       1  LIG11       0.1166
     54 H          -9.4071    3.3336  -11.0441 H       1  LIG11       0.1166
     55 H          -9.6999   -0.5130    1.1053 H       1  LIG11       0.0720
     56 H          -8.0732    0.1619    1.3926 H       1  LIG11       0.0720
     57 H          -2.1448    4.8021   -1.4162 H       1  LIG11       0.0295
     58 H          -2.1779    6.5666   -1.2694 H       1  LIG11       0.0295
     59 H         -10.7393    1.6220    1.7776 H       1  LIG11       0.0591
     60 H          -9.1509    2.3731    1.9727 H       1  LIG11       0.0591
     61 H          -6.6489   -4.6880   -1.2299 H       1  LIG11       0.0660
     62 H          -6.4736   -3.1912   -0.3083 H       1  LIG11       0.0660
     63 H          -8.1110   -3.8582   -0.6849 H       1  LIG11       0.0660
     64 H          -3.8646    4.5871    0.3621 H       1  LIG11       0.0231
     65 H          -2.4712    5.5136    0.9380 H       1  LIG11       0.0231
     66 H          -3.9666    6.3536    0.4921 H       1  LIG11       0.0231
@<TRIPOS>BOND
     1     1    16   ar
     2     2    16   ar
     3     3    20    1
     4     3    31    1
     5     4    19    1
     6     4    33    1
     7     5    25    1
     8     5    32    1
     9     6    29    1
    10     6    32    1
    11     7    30    1
    12     7    36    1
    13     8    35    1
    14     9    10    1
    15     9    11    1
    16     9    16    1
    17    10    12    1
    18    10    14    1
    19    11    13    1
    20    11    15    1
    21    12    13   ar
    22    12    17   ar
    23    13    18   ar
    24    14    19   ar
    25    14    24   ar
    26    15    21   ar
    27    15    23   ar
    28    17    20   ar
    29    18    22   ar
    30    19    27   ar
    31    20    22   ar
    32    21    25   ar
    33    23    26   ar
    34    24    28   ar
    35    25    29   ar
    36    26    29   ar
    37    27    30   ar
    38    28    30   ar
    39    31    34    1
    40    33    35    1
    41    34    37    1
    42     8    38    1
    43     9    39    1
    44    10    40    1
    45    11    41    1
    46    17    42    1
    47    18    43    1
    48    21    44    1
    49    22    45    1
    50    23    46    1
    51    24    47    1
    52    26    48    1
    53    27    49    1
    54    28    50    1
    55    31    51    1
    56    31    52    1
    57    32    53    1
    58    32    54    1
    59    33    55    1
    60    33    56    1
    61    34    57    1
    62    34    58    1
    63    35    59    1
    64    35    60    1
    65    36    61    1
    66    36    62    1
    67    36    63    1
    68    37    64    1
    69    37    65    1
    70    37    66    1
@<TRIPOS>MOLECULE
../1EDN/PCA1_17-21.pdb
 47 48 0 0 0
SMALL
GASTEIGER

@<TRIPOS>ATOM
      1  N         -4.6470   -0.3680   -1.6750 N.3    17  LEU17      -0.1231
      2  CA        -5.8920   -0.8550   -2.2480 C.3    17  LEU17       0.1693
      3  CB        -6.0770   -2.3450   -1.7480 C.3    17  LEU17       0.0284
      4  CG        -7.4170   -3.0590   -2.1890 C.3    17  LEU17       0.0019
      5  CD1       -7.4920   -3.1930   -3.7220 C.3    17  LEU17       0.0001
      6  CD2       -7.5340   -4.4610   -1.6100 C.3    17  LEU17       0.0001
      7  C         -7.0080    0.1010   -1.8270 C.2    17  LEU17       0.2592
      8  O         -7.6220    0.6590   -2.7680 O.2    17  LEU17      -0.2718
      9  N         -7.2890    0.1920   -0.5460 N.am   18  ASP18      -0.1960
     10  CA        -8.2730    1.1070    0.1120 C.3    18  ASP18       0.1840
     11  CB        -8.8290    0.4520    1.4200 C.3    18  ASP18       0.1450
     12  CG        -9.9140    1.2760    2.0640 C.2    18  ASP18       0.3671
     13  OD1      -10.8560    1.7240    1.3430 O.co2  18  ASP18      -0.2456
     14  OD2       -9.7710    1.5960    3.2830 O.co2  18  ASP18      -0.2456
     15  C         -7.6270    2.4530    0.4740 C.2    18  ASP18       0.2622
     16  O         -8.0770    3.4620   -0.0480 O.2    18  ASP18      -0.2715
     17  N         -6.6010    2.4770    1.3340 N.am   19  ILE19      -0.1963
     18  CA        -6.1660    3.6270    2.0790 C.3    19  ILE19       0.1727
     19  CB        -5.0730    3.3500    3.1520 C.3    19  ILE19       0.0290
     20  CG2       -4.5850    4.5470    3.9530 C.3    19  ILE19       0.0023
     21  CG1       -5.6210    2.1420    3.9730 C.3    19  ILE19       0.0022
     22  CD1       -6.7460    2.5740    4.8760 C.3    19  ILE19       0.0001
     23  C         -5.6740    4.7260    1.1170 C.2    19  ILE19       0.2616
     24  O         -5.9640    5.8590    1.4260 O.2    19  ILE19      -0.2715
     25  N         -4.8940    4.3400    0.1060 N.am   20  ILE20      -0.1963
     26  CA        -4.3700    5.1770   -0.9560 C.3    20  ILE20       0.1727
     27  CB        -2.8480    5.4620   -0.8180 C.3    20  ILE20       0.0290
     28  CG2       -2.5210    6.1670    0.5290 C.3    20  ILE20       0.0023
     29  CG1       -1.9270    4.2500   -0.9510 C.3    20  ILE20       0.0022
     30  CD1       -0.4520    4.4090   -1.0350 C.3    20  ILE20       0.0001
     31  C         -4.8260    4.7960   -2.3980 C.2    20  ILE20       0.2617
     32  O         -4.8210    3.6210   -2.7490 O.2    20  ILE20      -0.2715
     33  N         -5.1950    5.7710   -3.1960 N.am   21  TRP21      -0.1941
     34  CA        -5.6960    5.8160   -4.5740 C.3    21  TRP21       0.1982
     35  CB        -7.1930    6.0870   -4.6010 C.3    21  TRP21       0.0394
     36  CG        -8.1480    4.9210   -4.3560 C.3    21  TRP21       0.0475
     37  CD1       -8.4270    4.3170   -3.1580 C.3    21  TRP21       0.1166
     38  NE1       -9.4680    3.4340   -3.3480 N.pl3  21  TRP21      -0.2376
     39  CE2      -10.0400    3.5420   -4.5600 C.ar   21  TRP21       0.0614
     40  CZ2      -11.2420    2.9770   -5.0990 C.ar   21  TRP21       0.0158
     41  CH2      -11.3060    3.0240   -6.5170 C.ar   21  TRP21       0.0013
     42  CZ3      -10.3640    3.7270   -7.2650 C.ar   21  TRP21      -0.0002
     43  CE3       -9.2810    4.3830   -6.7050 C.ar   21  TRP21      -0.0030
     44  CD2       -9.0950    4.3440   -5.3390 C.ar   21  TRP21      -0.0059
     45  C         -4.8510    6.8160   -5.3910 C.2    21  TRP21       0.3842
     46  O         -5.0400    8.0490   -5.1500 O.co2  21  TRP21      -0.2437
     47  OXT       -3.9720    6.3760   -6.1010 O.co2  21  TRP21      -0.2437
@<TRIPOS>BOND
     1    42    43   ar
     2    42    41   ar
     3    43    44   ar
     4    41    40   ar
     5    47    45   ar
     6    45    46   ar
     7    45    34    1
     8    44    39   ar
     9    44    36    1
    10    40    39   ar
    11    35    34    1
    12    35    36    1
    13    34    33    1
    14    39    38    1
    15    36    37    1
    16     5     4    1
    17    38    37    1
    18    33    31   am
    19     8     7    2
    20    32    31    2
    21    31    26    1
    22     2     7    1
    23     2     3    1
    24     2     1    1
    25     4     3    1
    26     4     6    1
    27     7     9   am
    28    30    29    1
    29    26    27    1
    30    26    25    1
    31    29    27    1
    32    27    28    1
    33     9    10    1
    34    16    15    2
    35    25    23   am
    36    10    15    1
    37    10    11    1
    38    15    17   am
    39    23    24    2
    40    23    18    1
    41    17    18    1
    42    13    12   ar
    43    11    12    1
    44    12    14   ar
    45    18    19    1
    46    19    20    1
    47    19    21    1
    48    21    22    1
