@<TRIPOS>MOLECULE
../1EDN/PCA1_17-21_NOBACKBONE.pdb
 26 23 0 0 0
SMALL
GASTEIGER

@<TRIPOS>ATOM
      1  CB        -6.0770   -2.3450   -1.7480 C.3    17  LEU17       0.0000
      2  CG        -7.4170   -3.0590   -2.1890 C.3    17  LEU17       0.0000
      3  CD1       -7.4920   -3.1930   -3.7220 C.3    17  LEU17       0.0000
      4  CD2       -7.5340   -4.4610   -1.6100 C.3    17  LEU17       0.0000
      5  CB        -8.8290    0.4520    1.4200 C.3    18  ASP18       0.1258
      6  CG        -9.9140    1.2760    2.0640 C.2    18  ASP18       0.3654
      7  OD1      -10.8560    1.7240    1.3430 O.co2  18  ASP18      -0.2456
      8  OD2       -9.7710    1.5960    3.2830 O.co2  18  ASP18      -0.2456
      9  CB        -5.0730    3.3500    3.1520 C.3    19  ILE19       0.0000
     10  CG2       -4.5850    4.5470    3.9530 C.3    19  ILE19       0.0000
     11  CG1       -5.6210    2.1420    3.9730 C.3    19  ILE19       0.0000
     12  CD1       -6.7460    2.5740    4.8760 C.3    19  ILE19       0.0000
     13  CB        -2.8480    5.4620   -0.8180 C.3    20  ILE20       0.0000
     14  CG2       -2.5210    6.1670    0.5290 C.3    20  ILE20       0.0000
     15  CG1       -1.9270    4.2500   -0.9510 C.3    20  ILE20       0.0000
     16  CD1       -0.4520    4.4090   -1.0350 C.3    20  ILE20       0.0000
     17  CB        -7.1930    6.0870   -4.6010 C.3    21  TRP21       0.0066
     18  CG        -8.1480    4.9210   -4.3560 C.3    21  TRP21       0.0452
     19  CD1       -8.4270    4.3170   -3.1580 C.3    21  TRP21       0.1165
     20  NE1       -9.4680    3.4340   -3.3480 N.pl3  21  TRP21      -0.2376
     21  CE2      -10.0400    3.5420   -4.5600 C.ar   21  TRP21       0.0614
     22  CZ2      -11.2420    2.9770   -5.0990 C.ar   21  TRP21       0.0158
     23  CH2      -11.3060    3.0240   -6.5170 C.ar   21  TRP21       0.0013
     24  CZ3      -10.3640    3.7270   -7.2650 C.ar   21  TRP21      -0.0002
     25  CE3       -9.2810    4.3830   -6.7050 C.ar   21  TRP21      -0.0030
     26  CD2       -9.0950    4.3440   -5.3390 C.ar   21  TRP21      -0.0059
@<TRIPOS>BOND
     1    24    25   ar
     2    24    23   ar
     3    25    26   ar
     4    23    22   ar
     5    26    21   ar
     6    26    18    1
     7    22    21   ar
     8    17    18    1
     9    21    20    1
    10    18    19    1
    11     3     2    1
    12    20    19    1
    13     2     1    1
    14     2     4    1
    15    16    15    1
    16    15    13    1
    17    13    14    1
    18     7     6   ar
    19     5     6    1
    20     6     8   ar
    21     9    10    1
    22     9    11    1
    23    11    12    1
@<TRIPOS>MOLECULE
2-[[2-[2-butyl-4-[(Z)-2-carboxy-3-(6-methoxy-1,3-benzodioxol-5-yl)prop-1-enyl]pyrazol-3-yl]-5-methoxyphenoxy]methyl]benzoic acid
 77 81 0 0 0
SMALL
GASTEIGER

@<TRIPOS>ATOM
      1 O          -9.3465    2.4975   -2.4709 O.3     1  LIG11      -0.4866
      2 O          -5.6733    4.5203    2.9415 O.3     1  LIG11      -0.4526
      3 O          -4.3202    3.6198    4.7215 O.3     1  LIG11      -0.4525
      4 O          -6.2061   -0.8316    4.0657 O.3     1  LIG11      -0.4947
      5 O          -4.8227    3.8231   -2.6480 O.3     1  LIG11      -0.4950
      6 O         -10.2635    1.1507    3.7780 O.co2   1  LIG11      -0.5449
      7 O         -10.2142    2.9833    2.4156 O.co2   1  LIG11      -0.5449
      8 O         -11.5333    2.5190   -4.9354 O.co2   1  LIG11      -0.5446
      9 O         -11.7640    3.5854   -6.9041 O.co2   1  LIG11      -0.5446
     10 N          -8.6420   -1.6063   -1.8188 N.ar    1  LIG11      -0.2630
     11 N          -9.7616   -2.2307   -1.3823 N.ar    1  LIG11      -0.1785
     12 C          -8.6259   -0.2276   -1.5720 C.ar    1  LIG11       0.0795
     13 C          -7.5297   -2.4598   -2.2044 C.3     1  LIG11       0.0422
     14 C          -7.5789   -3.9180   -1.7237 C.3     1  LIG11      -0.0336
     15 C          -9.5481   -0.1373   -0.5248 C.ar    1  LIG11       0.0207
     16 C          -7.6829    0.7982   -2.1234 C.ar    1  LIG11       0.0425
     17 C          -6.3293   -4.7203   -2.1075 C.3     1  LIG11      -0.0542
     18 C         -10.2712   -1.3472   -0.5307 C.ar    1  LIG11       0.0571
     19 C          -9.8013    0.8870    0.4370 C.2     1  LIG11      -0.0459
     20 C          -8.0189    0.1946    2.1586 C.3     1  LIG11       0.0029
     21 C          -8.0347    2.1635   -2.2323 C.ar    1  LIG11       0.1336
     22 C          -9.2289    0.9512    1.6598 C.2     1  LIG11      -0.0200
     23 C          -6.9438    1.0579    2.8267 C.ar    1  LIG11       0.0023
     24 C          -6.3598    0.4817   -2.4812 C.ar    1  LIG11      -0.0456
     25 C          -5.0200   -4.1086   -1.6251 C.3     1  LIG11      -0.0652
     26 C          -7.0193    3.1226   -2.2114 C.ar    1  LIG11       0.0224
     27 C          -6.0858    0.5163    3.8259 C.ar    1  LIG11       0.1273
     28 C          -6.7949    2.4118    2.4530 C.ar    1  LIG11      -0.0092
     29 C          -5.3909    1.4590   -2.7236 C.ar    1  LIG11      -0.0191
     30 C          -5.8957    3.1933    3.1407 C.ar    1  LIG11       0.1667
     31 C          -5.7093    2.7887   -2.5293 C.ar    1  LIG11       0.1236
     32 C          -5.1211    2.6782    4.1483 C.ar    1  LIG11       0.1697
     33 C          -5.1776    1.3471    4.5026 C.ar    1  LIG11       0.0258
     34 C          -9.9706    1.7832    2.7203 C.2     1  LIG11       0.0680
     35 C          -9.7025    3.7942   -3.0263 C.3     1  LIG11       0.1153
     36 C          -4.7619    4.7995    4.0158 C.3     1  LIG11       0.2332
     37 C          -9.1563    4.2472   -4.4007 C.ar    1  LIG11      -0.0016
     38 C          -9.7719    3.9831   -5.6491 C.ar    1  LIG11       0.0037
     39 C          -8.0078    5.0819   -4.4207 C.ar    1  LIG11      -0.0547
     40 C          -5.3202   -1.4058    5.0155 C.3     1  LIG11       0.0788
     41 C          -9.1402    4.4511   -6.8388 C.ar    1  LIG11      -0.0525
     42 C          -7.4033    5.5191   -5.6036 C.ar    1  LIG11      -0.0614
     43 C          -3.8712    3.6494   -3.6946 C.3     1  LIG11       0.0788
     44 C          -7.9580    5.1881   -6.8168 C.ar    1  LIG11      -0.0611
     45 C         -11.1223    3.3060   -5.8293 C.2     1  LIG11       0.0720
     46 H          -6.6618   -2.0379   -1.7016 H       1  LIG11       0.0509
     47 H          -7.4304   -2.3976   -3.2918 H       1  LIG11       0.0509
     48 H          -8.4601   -4.4257   -2.1342 H       1  LIG11       0.0283
     49 H          -7.6868   -3.9366   -0.6306 H       1  LIG11       0.0283
     50 H          -6.2893   -4.8387   -3.1961 H       1  LIG11       0.0263
     51 H          -6.4213   -5.7262   -1.6807 H       1  LIG11       0.0263
     52 H         -11.1145   -1.6249    0.0882 H       1  LIG11       0.0854
     53 H         -10.6759    1.5098    0.2442 H       1  LIG11       0.0628
     54 H          -7.5263   -0.3458    1.3408 H       1  LIG11       0.0363
     55 H          -8.3716   -0.5625    2.8703 H       1  LIG11       0.0363
     56 H          -6.0099   -0.5282   -2.5885 H       1  LIG11       0.0626
     57 H          -4.7865   -3.1867   -2.1674 H       1  LIG11       0.0230
     58 H          -4.1920   -4.8036   -1.7976 H       1  LIG11       0.0230
     59 H          -5.0566   -3.8817   -0.5548 H       1  LIG11       0.0230
     60 H          -7.2566    4.1535   -1.9979 H       1  LIG11       0.0691
     61 H          -7.4155    2.8574    1.6799 H       1  LIG11       0.0659
     62 H          -4.3911    1.1425   -2.9940 H       1  LIG11       0.0654
     63 H          -4.5354    0.9949    5.2973 H       1  LIG11       0.0692
     64 H          -9.4549    4.5580   -2.2774 H       1  LIG11       0.0748
     65 H         -10.7963    3.8304   -3.0565 H       1  LIG11       0.0748
     66 H          -5.2512    5.4741    4.7293 H       1  LIG11       0.1166
     67 H          -3.8824    5.3069    3.6048 H       1  LIG11       0.1166
     68 H          -7.5704    5.4329   -3.4934 H       1  LIG11       0.0622
     69 H          -5.5166   -2.4815    5.0530 H       1  LIG11       0.0660
     70 H          -5.4959   -1.0015    6.0182 H       1  LIG11       0.0660
     71 H          -4.2751   -1.2735    4.7144 H       1  LIG11       0.0660
     72 H          -9.6168    4.2448   -7.7951 H       1  LIG11       0.0624
     73 H          -6.5032    6.1284   -5.5521 H       1  LIG11       0.0618
     74 H          -3.4045    4.6202   -3.8862 H       1  LIG11       0.0660
     75 H          -4.3447    3.3178   -4.6259 H       1  LIG11       0.0660
     76 H          -3.0814    2.9558   -3.3903 H       1  LIG11       0.0660
     77 H          -7.5163    5.5249   -7.7469 H       1  LIG11       0.0618
@<TRIPOS>BOND
     1     1    35    1
     2     1    21    1
     3     2    36    1
     4     2    30    1
     5     3    32    1
     6     3    36    1
     7     4    27    1
     8     4    40    1
     9     5    31    1
    10     5    43    1
    11     6    34   ar
    12     7    34   ar
    13     8    45   ar
    14     9    45   ar
    15    10    11   ar
    16    10    12   ar
    17    10    13    1
    18    11    18   ar
    19    12    15   ar
    20    13    14    1
    21    14    17    1
    22    15    18   ar
    23    15    19    1
    24    16    24   ar
    25    16    21   ar
    26    16    12    1
    27    17    25    1
    28    19    22    2
    29    20    22    1
    30    20    23    1
    31    21    26   ar
    32    22    34    1
    33    23    28   ar
    34    23    27   ar
    35    24    29   ar
    36    26    31   ar
    37    27    33   ar
    38    28    30   ar
    39    29    31   ar
    40    30    32   ar
    41    32    33   ar
    42    35    37    1
    43    37    39   ar
    44    37    38   ar
    45    38    41   ar
    46    38    45    1
    47    39    42   ar
    48    41    44   ar
    49    42    44   ar
    50    13    46    1
    51    13    47    1
    52    14    48    1
    53    14    49    1
    54    17    50    1
    55    17    51    1
    56    18    52    1
    57    19    53    1
    58    20    54    1
    59    20    55    1
    60    24    56    1
    61    25    57    1
    62    25    58    1
    63    25    59    1
    64    26    60    1
    65    28    61    1
    66    29    62    1
    67    33    63    1
    68    35    64    1
    69    35    65    1
    70    36    66    1
    71    36    67    1
    72    39    68    1
    73    40    69    1
    74    40    70    1
    75    40    71    1
    76    41    72    1
    77    42    73    1
    78    43    74    1
    79    43    75    1
    80    43    76    1
    81    44    77    1
@<TRIPOS>MOLECULE
../1EDN/PCA1_17-21.pdb
 47 48 0 0 0
SMALL
GASTEIGER

@<TRIPOS>ATOM
      1  N         -4.6470   -0.3680   -1.6750 N.3    17  LEU17      -0.1231
      2  CA        -5.8920   -0.8550   -2.2480 C.3    17  LEU17       0.1693
      3  CB        -6.0770   -2.3450   -1.7480 C.3    17  LEU17       0.0284
      4  CG        -7.4170   -3.0590   -2.1890 C.3    17  LEU17       0.0019
      5  CD1       -7.4920   -3.1930   -3.7220 C.3    17  LEU17       0.0001
      6  CD2       -7.5340   -4.4610   -1.6100 C.3    17  LEU17       0.0001
      7  C         -7.0080    0.1010   -1.8270 C.2    17  LEU17       0.2592
      8  O         -7.6220    0.6590   -2.7680 O.2    17  LEU17      -0.2718
      9  N         -7.2890    0.1920   -0.5460 N.am   18  ASP18      -0.1960
     10  CA        -8.2730    1.1070    0.1120 C.3    18  ASP18       0.1840
     11  CB        -8.8290    0.4520    1.4200 C.3    18  ASP18       0.1450
     12  CG        -9.9140    1.2760    2.0640 C.2    18  ASP18       0.3671
     13  OD1      -10.8560    1.7240    1.3430 O.co2  18  ASP18      -0.2456
     14  OD2       -9.7710    1.5960    3.2830 O.co2  18  ASP18      -0.2456
     15  C         -7.6270    2.4530    0.4740 C.2    18  ASP18       0.2622
     16  O         -8.0770    3.4620   -0.0480 O.2    18  ASP18      -0.2715
     17  N         -6.6010    2.4770    1.3340 N.am   19  ILE19      -0.1963
     18  CA        -6.1660    3.6270    2.0790 C.3    19  ILE19       0.1727
     19  CB        -5.0730    3.3500    3.1520 C.3    19  ILE19       0.0290
     20  CG2       -4.5850    4.5470    3.9530 C.3    19  ILE19       0.0023
     21  CG1       -5.6210    2.1420    3.9730 C.3    19  ILE19       0.0022
     22  CD1       -6.7460    2.5740    4.8760 C.3    19  ILE19       0.0001
     23  C         -5.6740    4.7260    1.1170 C.2    19  ILE19       0.2616
     24  O         -5.9640    5.8590    1.4260 O.2    19  ILE19      -0.2715
     25  N         -4.8940    4.3400    0.1060 N.am   20  ILE20      -0.1963
     26  CA        -4.3700    5.1770   -0.9560 C.3    20  ILE20       0.1727
     27  CB        -2.8480    5.4620   -0.8180 C.3    20  ILE20       0.0290
     28  CG2       -2.5210    6.1670    0.5290 C.3    20  ILE20       0.0023
     29  CG1       -1.9270    4.2500   -0.9510 C.3    20  ILE20       0.0022
     30  CD1       -0.4520    4.4090   -1.0350 C.3    20  ILE20       0.0001
     31  C         -4.8260    4.7960   -2.3980 C.2    20  ILE20       0.2617
     32  O         -4.8210    3.6210   -2.7490 O.2    20  ILE20      -0.2715
     33  N         -5.1950    5.7710   -3.1960 N.am   21  TRP21      -0.1941
     34  CA        -5.6960    5.8160   -4.5740 C.3    21  TRP21       0.1982
     35  CB        -7.1930    6.0870   -4.6010 C.3    21  TRP21       0.0394
     36  CG        -8.1480    4.9210   -4.3560 C.3    21  TRP21       0.0475
     37  CD1       -8.4270    4.3170   -3.1580 C.3    21  TRP21       0.1166
     38  NE1       -9.4680    3.4340   -3.3480 N.pl3  21  TRP21      -0.2376
     39  CE2      -10.0400    3.5420   -4.5600 C.ar   21  TRP21       0.0614
     40  CZ2      -11.2420    2.9770   -5.0990 C.ar   21  TRP21       0.0158
     41  CH2      -11.3060    3.0240   -6.5170 C.ar   21  TRP21       0.0013
     42  CZ3      -10.3640    3.7270   -7.2650 C.ar   21  TRP21      -0.0002
     43  CE3       -9.2810    4.3830   -6.7050 C.ar   21  TRP21      -0.0030
     44  CD2       -9.0950    4.3440   -5.3390 C.ar   21  TRP21      -0.0059
     45  C         -4.8510    6.8160   -5.3910 C.2    21  TRP21       0.3842
     46  O         -5.0400    8.0490   -5.1500 O.co2  21  TRP21      -0.2437
     47  OXT       -3.9720    6.3760   -6.1010 O.co2  21  TRP21      -0.2437
@<TRIPOS>BOND
     1    42    43   ar
     2    42    41   ar
     3    43    44   ar
     4    41    40   ar
     5    47    45   ar
     6    45    46   ar
     7    45    34    1
     8    44    39   ar
     9    44    36    1
    10    40    39   ar
    11    35    34    1
    12    35    36    1
    13    34    33    1
    14    39    38    1
    15    36    37    1
    16     5     4    1
    17    38    37    1
    18    33    31   am
    19     8     7    2
    20    32    31    2
    21    31    26    1
    22     2     7    1
    23     2     3    1
    24     2     1    1
    25     4     3    1
    26     4     6    1
    27     7     9   am
    28    30    29    1
    29    26    27    1
    30    26    25    1
    31    29    27    1
    32    27    28    1
    33     9    10    1
    34    16    15    2
    35    25    23   am
    36    10    15    1
    37    10    11    1
    38    15    17   am
    39    23    24    2
    40    23    18    1
    41    17    18    1
    42    13    12   ar
    43    11    12    1
    44    12    14   ar
    45    18    19    1
    46    19    20    1
    47    19    21    1
    48    21    22    1
