@<TRIPOS>MOLECULE
../1EDN/PCA1_17-21_NOBACKBONE.pdb
 26 23 0 0 0
SMALL
GASTEIGER

@<TRIPOS>ATOM
      1  CB        -6.0770   -2.3450   -1.7480 C.3    17  LEU17       0.0000
      2  CG        -7.4170   -3.0590   -2.1890 C.3    17  LEU17       0.0000
      3  CD1       -7.4920   -3.1930   -3.7220 C.3    17  LEU17       0.0000
      4  CD2       -7.5340   -4.4610   -1.6100 C.3    17  LEU17       0.0000
      5  CB        -8.8290    0.4520    1.4200 C.3    18  ASP18       0.1258
      6  CG        -9.9140    1.2760    2.0640 C.2    18  ASP18       0.3654
      7  OD1      -10.8560    1.7240    1.3430 O.co2  18  ASP18      -0.2456
      8  OD2       -9.7710    1.5960    3.2830 O.co2  18  ASP18      -0.2456
      9  CB        -5.0730    3.3500    3.1520 C.3    19  ILE19       0.0000
     10  CG2       -4.5850    4.5470    3.9530 C.3    19  ILE19       0.0000
     11  CG1       -5.6210    2.1420    3.9730 C.3    19  ILE19       0.0000
     12  CD1       -6.7460    2.5740    4.8760 C.3    19  ILE19       0.0000
     13  CB        -2.8480    5.4620   -0.8180 C.3    20  ILE20       0.0000
     14  CG2       -2.5210    6.1670    0.5290 C.3    20  ILE20       0.0000
     15  CG1       -1.9270    4.2500   -0.9510 C.3    20  ILE20       0.0000
     16  CD1       -0.4520    4.4090   -1.0350 C.3    20  ILE20       0.0000
     17  CB        -7.1930    6.0870   -4.6010 C.3    21  TRP21       0.0066
     18  CG        -8.1480    4.9210   -4.3560 C.3    21  TRP21       0.0452
     19  CD1       -8.4270    4.3170   -3.1580 C.3    21  TRP21       0.1165
     20  NE1       -9.4680    3.4340   -3.3480 N.pl3  21  TRP21      -0.2376
     21  CE2      -10.0400    3.5420   -4.5600 C.ar   21  TRP21       0.0614
     22  CZ2      -11.2420    2.9770   -5.0990 C.ar   21  TRP21       0.0158
     23  CH2      -11.3060    3.0240   -6.5170 C.ar   21  TRP21       0.0013
     24  CZ3      -10.3640    3.7270   -7.2650 C.ar   21  TRP21      -0.0002
     25  CE3       -9.2810    4.3830   -6.7050 C.ar   21  TRP21      -0.0030
     26  CD2       -9.0950    4.3440   -5.3390 C.ar   21  TRP21      -0.0059
@<TRIPOS>BOND
     1    24    25   ar
     2    24    23   ar
     3    25    26   ar
     4    23    22   ar
     5    26    21   ar
     6    26    18    1
     7    22    21   ar
     8    17    18    1
     9    21    20    1
    10    18    19    1
    11     3     2    1
    12    20    19    1
    13     2     1    1
    14     2     4    1
    15    16    15    1
    16    15    13    1
    17    13    14    1
    18     7     6   ar
    19     5     6    1
    20     6     8   ar
    21     9    10    1
    22     9    11    1
    23    11    12    1
@<TRIPOS>MOLECULE
02228316B
 82 86 0 0 0
SMALL
GASTEIGER

@<TRIPOS>ATOM
      1 C         -10.2309    3.8922   -4.8907 C.3     1  LIG11       0.2491
      2 C          -9.6829    2.7404   -4.0725 C.2     1  LIG11       0.3556
      3 N          -9.1175    4.8748   -4.9141 N.2     1  LIG11      -0.0687
      4 C         -11.4949    4.5319   -4.3144 C.3     1  LIG11       0.0059
      5 C         -10.5619    3.4634   -6.3238 C.3     1  LIG11       0.0059
      6 N          -8.3724    3.0443   -3.8414 N.am    1  LIG11      -0.1529
      7 O         -10.2852    1.7366   -3.7252 O.2     1  LIG11      -0.2422
      8 C          -8.1276    4.2774   -4.3247 C.2     1  LIG11       0.2916
      9 C         -12.5608    4.3597   -5.3948 C.3     1  LIG11      -0.0481
     10 C         -11.7734    4.3055   -6.6930 C.3     1  LIG11      -0.0481
     11 C          -7.4607    2.1197   -3.1923 C.3     1  LIG11       0.1137
     12 C          -6.7671    4.9180   -4.1694 C.3     1  LIG11       0.0509
     13 C          -7.2470    2.4141   -1.7322 C.ar    1  LIG11      -0.0073
     14 C          -6.6382    6.3219   -4.7599 C.3     1  LIG11      -0.0424
     15 C          -8.2396    2.2070   -0.7833 C.ar    1  LIG11      -0.0491
     16 C          -6.0532    2.9184   -1.2697 C.ar    1  LIG11      -0.0544
     17 C          -6.5710    6.3275   -6.2884 C.3     1  LIG11      -0.0554
     18 C          -8.0412    2.4274    0.6227 C.ar    1  LIG11      -0.0138
     19 C          -5.8707    3.1618    0.0999 C.ar    1  LIG11      -0.0533
     20 C          -6.3746    7.7382   -6.8230 C.3     1  LIG11      -0.0653
     21 C          -6.7691    2.8581    1.1313 C.ar    1  LIG11      -0.0106
     22 C          -9.3251    2.1964    1.4043 C.3     1  LIG11       0.0732
     23 C          -6.3255    3.0146    2.6077 C.ar    1  LIG11       0.0091
     24 O          -9.2744    1.1160    2.3254 O.3     1  LIG11      -0.3754
     25 C          -5.0033    3.0263    3.1854 C.ar    1  LIG11       0.1162
     26 C          -7.3400    3.1559    3.5919 C.ar    1  LIG11      -0.0521
     27 C          -9.1953   -0.1771    1.7268 C.3     1  LIG11       0.0453
     28 S          -3.3935    3.0144    2.3565 S.O2    1  LIG11       0.0741
     29 C          -4.8171    3.0573    4.6047 C.ar    1  LIG11      -0.0345
     30 C          -7.1423    3.1779    4.9825 C.ar    1  LIG11      -0.0611
     31 C         -10.4434   -0.5482    0.9403 C.3     1  LIG11      -0.0416
     32 N          -3.0799    4.6702    2.1371 N.pl3   1  LIG11      -0.1965
     33 O          -3.4255    2.2993    1.1047 O.2     1  LIG11      -0.1499
     34 O          -2.3849    2.6195    3.3289 O.2     1  LIG11      -0.1499
     35 C          -5.8729    3.1095    5.4960 C.ar    1  LIG11      -0.0599
     36 C          -3.2916    5.2837    0.9090 C.ar    1  LIG11       0.1837
     37 C          -2.5106    5.1640   -0.2691 C.ar    1  LIG11       0.0342
     38 N          -4.3241    6.1112    0.7318 N.ar    1  LIG11      -0.0614
     39 C          -3.2130    5.9076   -1.1968 C.ar    1  LIG11       0.1390
     40 C          -1.2783    4.3794   -0.4954 C.3     1  LIG11      -0.0330
     41 O          -4.2910    6.4778   -0.5986 O.2     1  LIG11      -0.3578
     42 C          -3.0589    6.1714   -2.6403 C.3     1  LIG11      -0.0034
     43 H         -11.8218    4.0743   -3.3748 H       1  LIG11       0.0316
     44 H         -11.3431    5.6012   -4.1222 H       1  LIG11       0.0316
     45 H          -9.7365    3.6224   -7.0262 H       1  LIG11       0.0316
     46 H         -10.8300    2.4002   -6.3647 H       1  LIG11       0.0316
     47 H         -13.0978    3.4160   -5.2423 H       1  LIG11       0.0267
     48 H         -13.2934    5.1719   -5.3873 H       1  LIG11       0.0267
     49 H         -11.4594    5.3124   -6.9924 H       1  LIG11       0.0267
     50 H         -12.3488    3.8665   -7.5128 H       1  LIG11       0.0267
     51 H          -7.8435    1.0966   -3.2929 H       1  LIG11       0.0783
     52 H          -6.5044    2.1498   -3.7268 H       1  LIG11       0.0783
     53 H          -6.5667    4.9913   -3.0957 H       1  LIG11       0.0387
     54 H          -6.0089    4.2548   -4.6003 H       1  LIG11       0.0387
     55 H          -7.4675    6.9537   -4.4193 H       1  LIG11       0.0271
     56 H          -5.7183    6.7736   -4.3685 H       1  LIG11       0.0271
     57 H          -9.2100    1.8538   -1.1382 H       1  LIG11       0.0625
     58 H          -5.2323    3.1406   -1.9475 H       1  LIG11       0.0622
     59 H          -5.7426    5.6956   -6.6284 H       1  LIG11       0.0263
     60 H          -7.4892    5.9130   -6.7171 H       1  LIG11       0.0263
     61 H          -4.9435    3.6399    0.3214 H       1  LIG11       0.0624
     62 H          -5.4286    8.1618   -6.4705 H       1  LIG11       0.0230
     63 H          -6.3567    7.7307   -7.9172 H       1  LIG11       0.0230
     64 H          -7.1874    8.3971   -6.5006 H       1  LIG11       0.0230
     65 H          -9.6084    3.1203    1.9177 H       1  LIG11       0.0610
     66 H         -10.1850    2.0548    0.7389 H       1  LIG11       0.0610
     67 H          -8.3763    3.2662    3.3233 H       1  LIG11       0.0624
     68 H          -8.2978   -0.2589    1.1051 H       1  LIG11       0.0557
     69 H          -9.0786   -0.8896    2.5496 H       1  LIG11       0.0557
     70 H          -3.8193    3.0453    5.0430 H       1  LIG11       0.0637
     71 H          -7.9999    3.2455    5.6476 H       1  LIG11       0.0618
     72 H         -10.5208    0.0298    0.0142 H       1  LIG11       0.0252
     73 H         -10.4229   -1.6061    0.6638 H       1  LIG11       0.0252
     74 H         -11.3475   -0.3471    1.5235 H       1  LIG11       0.0252
     75 H          -2.1772    4.8645    2.5661 H       1  LIG11       0.1753
     76 H          -5.6992    3.1183    6.5676 H       1  LIG11       0.0618
     77 H          -0.8955    3.9503    0.4350 H       1  LIG11       0.0280
     78 H          -1.4691    3.5607   -1.1964 H       1  LIG11       0.0280
     79 H          -0.4939    5.0174   -0.9155 H       1  LIG11       0.0280
     80 H          -2.0066    6.1384   -2.9364 H       1  LIG11       0.0309
     81 H          -3.6013    5.4180   -3.2209 H       1  LIG11       0.0309
     82 H          -3.4550    7.1565   -2.9060 H       1  LIG11       0.0309
@<TRIPOS>BOND
     1     1     5    1
     2     1     4    1
     3     1     2    1
     4     1     3    1
     5     2     6   am
     6     2     7    2
     7     3     8    2
     8     4     9    1
     9     5    10    1
    10     6     8    1
    11     6    11    1
    12     8    12    1
    13     9    10    1
    14    11    13    1
    15    12    14    1
    16    13    15   ar
    17    13    16   ar
    18    14    17    1
    19    15    18   ar
    20    16    19   ar
    21    17    20    1
    22    18    21   ar
    23    18    22    1
    24    19    21   ar
    25    21    23    1
    26    22    24    1
    27    23    26   ar
    28    23    25   ar
    29    24    27    1
    30    25    29   ar
    31    25    28    1
    32    26    30   ar
    33    27    31    1
    34    28    34    2
    35    28    33    2
    36    28    32    1
    37    29    35   ar
    38    30    35   ar
    39    32    36    1
    40    36    37   ar
    41    36    38   ar
    42    37    39   ar
    43    37    40    1
    44    38    41   ar
    45    39    41   ar
    46    39    42    1
    47     4    43    1
    48     4    44    1
    49     5    45    1
    50     5    46    1
    51     9    47    1
    52     9    48    1
    53    10    49    1
    54    10    50    1
    55    11    51    1
    56    11    52    1
    57    12    53    1
    58    12    54    1
    59    14    55    1
    60    14    56    1
    61    15    57    1
    62    16    58    1
    63    17    59    1
    64    17    60    1
    65    19    61    1
    66    20    62    1
    67    20    63    1
    68    20    64    1
    69    22    65    1
    70    22    66    1
    71    26    67    1
    72    27    68    1
    73    27    69    1
    74    29    70    1
    75    30    71    1
    76    31    72    1
    77    31    73    1
    78    31    74    1
    79    32    75    1
    80    35    76    1
    81    40    77    1
    82    40    78    1
    83    40    79    1
    84    42    80    1
    85    42    81    1
    86    42    82    1
@<TRIPOS>MOLECULE
../1EDN/PCA1_17-21.pdb
 47 48 0 0 0
SMALL
GASTEIGER

@<TRIPOS>ATOM
      1  N         -4.6470   -0.3680   -1.6750 N.3    17  LEU17      -0.1231
      2  CA        -5.8920   -0.8550   -2.2480 C.3    17  LEU17       0.1693
      3  CB        -6.0770   -2.3450   -1.7480 C.3    17  LEU17       0.0284
      4  CG        -7.4170   -3.0590   -2.1890 C.3    17  LEU17       0.0019
      5  CD1       -7.4920   -3.1930   -3.7220 C.3    17  LEU17       0.0001
      6  CD2       -7.5340   -4.4610   -1.6100 C.3    17  LEU17       0.0001
      7  C         -7.0080    0.1010   -1.8270 C.2    17  LEU17       0.2592
      8  O         -7.6220    0.6590   -2.7680 O.2    17  LEU17      -0.2718
      9  N         -7.2890    0.1920   -0.5460 N.am   18  ASP18      -0.1960
     10  CA        -8.2730    1.1070    0.1120 C.3    18  ASP18       0.1840
     11  CB        -8.8290    0.4520    1.4200 C.3    18  ASP18       0.1450
     12  CG        -9.9140    1.2760    2.0640 C.2    18  ASP18       0.3671
     13  OD1      -10.8560    1.7240    1.3430 O.co2  18  ASP18      -0.2456
     14  OD2       -9.7710    1.5960    3.2830 O.co2  18  ASP18      -0.2456
     15  C         -7.6270    2.4530    0.4740 C.2    18  ASP18       0.2622
     16  O         -8.0770    3.4620   -0.0480 O.2    18  ASP18      -0.2715
     17  N         -6.6010    2.4770    1.3340 N.am   19  ILE19      -0.1963
     18  CA        -6.1660    3.6270    2.0790 C.3    19  ILE19       0.1727
     19  CB        -5.0730    3.3500    3.1520 C.3    19  ILE19       0.0290
     20  CG2       -4.5850    4.5470    3.9530 C.3    19  ILE19       0.0023
     21  CG1       -5.6210    2.1420    3.9730 C.3    19  ILE19       0.0022
     22  CD1       -6.7460    2.5740    4.8760 C.3    19  ILE19       0.0001
     23  C         -5.6740    4.7260    1.1170 C.2    19  ILE19       0.2616
     24  O         -5.9640    5.8590    1.4260 O.2    19  ILE19      -0.2715
     25  N         -4.8940    4.3400    0.1060 N.am   20  ILE20      -0.1963
     26  CA        -4.3700    5.1770   -0.9560 C.3    20  ILE20       0.1727
     27  CB        -2.8480    5.4620   -0.8180 C.3    20  ILE20       0.0290
     28  CG2       -2.5210    6.1670    0.5290 C.3    20  ILE20       0.0023
     29  CG1       -1.9270    4.2500   -0.9510 C.3    20  ILE20       0.0022
     30  CD1       -0.4520    4.4090   -1.0350 C.3    20  ILE20       0.0001
     31  C         -4.8260    4.7960   -2.3980 C.2    20  ILE20       0.2617
     32  O         -4.8210    3.6210   -2.7490 O.2    20  ILE20      -0.2715
     33  N         -5.1950    5.7710   -3.1960 N.am   21  TRP21      -0.1941
     34  CA        -5.6960    5.8160   -4.5740 C.3    21  TRP21       0.1982
     35  CB        -7.1930    6.0870   -4.6010 C.3    21  TRP21       0.0394
     36  CG        -8.1480    4.9210   -4.3560 C.3    21  TRP21       0.0475
     37  CD1       -8.4270    4.3170   -3.1580 C.3    21  TRP21       0.1166
     38  NE1       -9.4680    3.4340   -3.3480 N.pl3  21  TRP21      -0.2376
     39  CE2      -10.0400    3.5420   -4.5600 C.ar   21  TRP21       0.0614
     40  CZ2      -11.2420    2.9770   -5.0990 C.ar   21  TRP21       0.0158
     41  CH2      -11.3060    3.0240   -6.5170 C.ar   21  TRP21       0.0013
     42  CZ3      -10.3640    3.7270   -7.2650 C.ar   21  TRP21      -0.0002
     43  CE3       -9.2810    4.3830   -6.7050 C.ar   21  TRP21      -0.0030
     44  CD2       -9.0950    4.3440   -5.3390 C.ar   21  TRP21      -0.0059
     45  C         -4.8510    6.8160   -5.3910 C.2    21  TRP21       0.3842
     46  O         -5.0400    8.0490   -5.1500 O.co2  21  TRP21      -0.2437
     47  OXT       -3.9720    6.3760   -6.1010 O.co2  21  TRP21      -0.2437
@<TRIPOS>BOND
     1    42    43   ar
     2    42    41   ar
     3    43    44   ar
     4    41    40   ar
     5    47    45   ar
     6    45    46   ar
     7    45    34    1
     8    44    39   ar
     9    44    36    1
    10    40    39   ar
    11    35    34    1
    12    35    36    1
    13    34    33    1
    14    39    38    1
    15    36    37    1
    16     5     4    1
    17    38    37    1
    18    33    31   am
    19     8     7    2
    20    32    31    2
    21    31    26    1
    22     2     7    1
    23     2     3    1
    24     2     1    1
    25     4     3    1
    26     4     6    1
    27     7     9   am
    28    30    29    1
    29    26    27    1
    30    26    25    1
    31    29    27    1
    32    27    28    1
    33     9    10    1
    34    16    15    2
    35    25    23   am
    36    10    15    1
    37    10    11    1
    38    15    17   am
    39    23    24    2
    40    23    18    1
    41    17    18    1
    42    13    12   ar
    43    11    12    1
    44    12    14   ar
    45    18    19    1
    46    19    20    1
    47    19    21    1
    48    21    22    1
