@<TRIPOS>MOLECULE
../1EDN/PCA2_17-21_NOBACKBONE.pdb
 26 23 0 0 0
SMALL
GASTEIGER

@<TRIPOS>ATOM
      1  CB        -5.9860   -1.2020   -0.4580 C.3    17  LEU17       0.0000
      2  CG        -7.1280   -2.2100   -0.5390 C.3    17  LEU17       0.0000
      3  CD1       -6.7120   -3.3620   -1.4700 C.3    17  LEU17       0.0000
      4  CD2       -7.4980   -2.5610    0.9130 C.3    17  LEU17       0.0000
      5  CB        -9.6810    1.0560   -1.6740 C.3    18  ASP18       0.1258
      6  CG       -11.0010    1.6360   -2.1090 C.2    18  ASP18       0.3654
      7  OD1      -11.5960    2.3310   -1.2790 O.co2  18  ASP18      -0.2456
      8  OD2      -11.5460    1.2700   -3.1630 O.co2  18  ASP18      -0.2456
      9  CB        -8.4260    4.8620    1.7600 C.3    19  ILE19       0.0000
     10  CG2       -7.7310    6.0060    2.5190 C.3    19  ILE19       0.0000
     11  CG1       -9.9240    4.5740    2.2500 C.3    19  ILE19       0.0000
     12  CD1      -10.9740    5.6950    2.0110 C.3    19  ILE19       0.0000
     13  CB        -3.5230    4.9310   -0.1080 C.3    20  ILE20       0.0000
     14  CG2       -2.1210    5.5060   -0.7390 C.3    20  ILE20       0.0000
     15  CG1       -3.5940    5.4760    1.3470 C.3    20  ILE20       0.0000
     16  CD1       -2.3570    5.1940    2.2260 C.3    20  ILE20       0.0000
     17  CB        -6.6210    3.8650   -5.0310 C.3    21  TRP21       0.0327
     18  CG        -6.7890    3.3770   -6.4480 C.ar   21  TRP21      -0.0013
     19  CD1       -7.1340    4.1960   -7.4760 C.ar   21  TRP21       0.0946
     20  NE1       -7.1740    3.4060   -8.6160 N.ar   21  TRP21      -0.2442
     21  CE2       -6.9360    2.0750   -8.3350 C.ar   21  TRP21       0.0810
     22  CZ2       -6.8300    1.0510   -9.2060 C.ar   21  TRP21       0.0191
     23  CH2       -6.3330   -0.2010   -8.7710 C.ar   21  TRP21       0.0015
     24  CZ3       -5.9560   -0.2520   -7.3640 C.ar   21  TRP21       0.0001
     25  CE3       -6.0150    0.8940   -6.5860 C.ar   21  TRP21       0.0012
     26  CD2       -6.6320    2.0560   -6.9830 C.ar   21  TRP21       0.0152
@<TRIPOS>BOND
     1    22    23   ar
     2    22    21   ar
     3    23    24   ar
     4    20    21   ar
     5    20    19   ar
     6    21    26   ar
     7    19    18   ar
     8    24    25   ar
     9    26    25   ar
    10    26    18   ar
    11    18    17    1
    12     8     6   ar
    13     6     5    1
    14     6     7   ar
    15     3     2    1
    16    14    13    1
    17     2     1    1
    18     2     4    1
    19    13    15    1
    20    15    16    1
    21     9    11    1
    22     9    10    1
    23    12    11    1
@<TRIPOS>MOLECULE
9910224
 46 49 0 0 0
SMALL
GASTEIGER

@<TRIPOS>ATOM
      1 S          -6.2864    3.3980    0.2305 S.O2    1  LIG11       0.0756
      2 O          -6.3289    2.9911    1.6219 O.2     1  LIG11      -0.1499
      3 O          -6.4162    2.3915   -0.8009 O.2     1  LIG11      -0.1499
      4 O          -9.7589    4.0600    1.5633 O.3     1  LIG11      -0.4773
      5 O          -5.7854    2.1277   -7.1914 O.2     1  LIG11      -0.4229
      6 N          -7.5115    4.5224   -0.0380 N.pl3   1  LIG11      -0.1951
      7 N          -3.0556    5.1476   -1.4697 N.ar    1  LIG11      -0.2530
      8 N          -6.9065    6.3088    1.3400 N.ar    1  LIG11      -0.2325
      9 N          -9.1446    5.8176    3.0338 N.ar    1  LIG11      -0.2137
     10 N          -7.6611    3.3234   -6.9547 N.ar    1  LIG11      -0.1076
     11 N          -7.7191    2.6741   -8.1721 N.ar    1  LIG11      -0.1156
     12 C          -4.7955    4.3044   -0.0430 C.ar    1  LIG11       0.1344
     13 C          -4.2646    4.5283   -1.3109 C.ar    1  LIG11       0.0975
     14 C          -4.8611    4.1390   -2.5982 C.ar    1  LIG11       0.0023
     15 C          -4.0620    4.7162    1.0805 C.ar    1  LIG11      -0.0315
     16 C          -6.0756    4.6696   -3.0560 C.ar    1  LIG11      -0.0518
     17 C          -4.1775    3.2472   -3.4426 C.ar    1  LIG11      -0.0518
     18 C          -7.8055    5.3378    1.0853 C.ar    1  LIG11       0.2006
     19 C          -5.9349    3.3718   -5.1193 C.ar    1  LIG11       0.0385
     20 C          -6.6112    4.2806   -4.2922 C.ar    1  LIG11      -0.0488
     21 C          -4.7043    2.8674   -4.6822 C.ar    1  LIG11      -0.0488
     22 C          -2.8395    5.3545    0.9162 C.ar    1  LIG11      -0.0417
     23 C          -2.3811    5.5461   -0.3705 C.ar    1  LIG11       0.0284
     24 C          -8.8987    5.0816    1.9230 C.ar    1  LIG11       0.2574
     25 C          -6.5136    2.9827   -6.3995 C.ar    1  LIG11       0.2480
     26 C          -8.2470    6.8006    3.2950 C.ar    1  LIG11       0.0602
     27 C          -7.1562    7.0343    2.4575 C.ar    1  LIG11       0.0510
     28 C          -8.4582    7.6352    4.5194 C.3     1  LIG11      -0.0208
     29 C         -10.7455    3.7952    2.5560 C.3     1  LIG11       0.0805
     30 C          -6.6051    1.9894   -8.2682 C.ar    1  LIG11       0.2047
     31 H          -8.3229    4.0409   -0.4264 H       1  LIG11       0.1754
     32 H          -4.4404    4.5411    2.0854 H       1  LIG11       0.0638
     33 H          -6.6145    5.4027   -2.4597 H       1  LIG11       0.0624
     34 H          -3.2137    2.8453   -3.1328 H       1  LIG11       0.0624
     35 H          -7.5639    4.7021   -4.6103 H       1  LIG11       0.0625
     36 H          -4.1361    2.1730   -5.2972 H       1  LIG11       0.0625
     37 H          -2.2585    5.6838    1.7699 H       1  LIG11       0.0633
     38 H          -1.4297    6.0335   -0.5626 H       1  LIG11       0.0830
     39 H          -6.4397    7.8221    2.6688 H       1  LIG11       0.0848
     40 H          -9.3434    7.3014    5.0704 H       1  LIG11       0.0293
     41 H          -8.6039    8.6839    4.2427 H       1  LIG11       0.0293
     42 H          -7.5937    7.5561    5.1859 H       1  LIG11       0.0293
     43 H         -11.3476    2.9497    2.2098 H       1  LIG11       0.0660
     44 H         -11.4174    4.6508    2.6852 H       1  LIG11       0.0660
     45 H         -10.2851    3.5084    3.5080 H       1  LIG11       0.0660
     46 H          -6.2690    1.3500   -9.0701 H       1  LIG11       0.1272
@<TRIPOS>BOND
     1     1     2    2
     2     1     3    2
     3     1     6    1
     4     1    12    1
     5     4    24    1
     6     4    29    1
     7     5    25   ar
     8     5    30   ar
     9     6    18    1
    10     7    13   ar
    11     7    23   ar
    12     8    18   ar
    13     8    27   ar
    14     9    24   ar
    15     9    26   ar
    16    10    11   ar
    17    10    25   ar
    18    11    30   ar
    19    12    13   ar
    20    12    15   ar
    21    13    14    1
    22    14    16   ar
    23    14    17   ar
    24    15    22   ar
    25    16    20   ar
    26    17    21   ar
    27    18    24   ar
    28    19    20   ar
    29    19    21   ar
    30    19    25    1
    31    22    23   ar
    32    26    27   ar
    33    26    28    1
    34     6    31    1
    35    15    32    1
    36    16    33    1
    37    17    34    1
    38    20    35    1
    39    21    36    1
    40    22    37    1
    41    23    38    1
    42    27    39    1
    43    28    40    1
    44    28    41    1
    45    28    42    1
    46    29    43    1
    47    29    44    1
    48    29    45    1
    49    30    46    1
@<TRIPOS>MOLECULE
../1EDN/PCA2_17-21.pdb
 47 48 0 0 0
SMALL
GASTEIGER

@<TRIPOS>ATOM
      1  N         -4.4680    0.3970   -1.5420 N.3    17  LEU17      -0.1231
      2  CA        -5.5730   -0.5090   -1.8150 C.3    17  LEU17       0.1693
      3  CB        -5.9860   -1.2020   -0.4580 C.3    17  LEU17       0.0284
      4  CG        -7.1280   -2.2100   -0.5390 C.3    17  LEU17       0.0019
      5  CD1       -6.7120   -3.3620   -1.4700 C.3    17  LEU17       0.0001
      6  CD2       -7.4980   -2.5610    0.9130 C.3    17  LEU17       0.0001
      7  C         -6.7000    0.2280   -2.5610 C.2    17  LEU17       0.2592
      8  O         -7.1860   -0.2780   -3.5510 O.2    17  LEU17      -0.2718
      9  N         -7.2650    1.2690   -1.9650 N.am   18  ASP18      -0.1960
     10  CA        -8.5260    1.8930   -2.2590 C.3    18  ASP18       0.1840
     11  CB        -9.6810    1.0560   -1.6740 C.3    18  ASP18       0.1450
     12  CG       -11.0010    1.6360   -2.1090 C.2    18  ASP18       0.3671
     13  OD1      -11.5960    2.3310   -1.2790 O.co2  18  ASP18      -0.2456
     14  OD2      -11.5460    1.2700   -3.1630 O.co2  18  ASP18      -0.2456
     15  C         -8.5570    3.3770   -1.7380 C.2    18  ASP18       0.2622
     16  O         -8.6960    4.2620   -2.5680 O.2    18  ASP18      -0.2715
     17  N         -8.4180    3.5730   -0.4160 N.am   19  ILE19      -0.1963
     18  CA        -8.3980    4.9040    0.1930 C.3    19  ILE19       0.1727
     19  CB        -8.4260    4.8620    1.7600 C.3    19  ILE19       0.0290
     20  CG2       -7.7310    6.0060    2.5190 C.3    19  ILE19       0.0023
     21  CG1       -9.9240    4.5740    2.2500 C.3    19  ILE19       0.0022
     22  CD1      -10.9740    5.6950    2.0110 C.3    19  ILE19       0.0001
     23  C         -7.1570    5.7010   -0.3260 C.2    19  ILE19       0.2616
     24  O         -7.3050    6.7970   -0.9200 O.2    19  ILE19      -0.2715
     25  N         -5.9900    5.0720   -0.2260 N.am   20  ILE20      -0.1963
     26  CA        -4.7520    5.3490   -0.9430 C.3    20  ILE20       0.1727
     27  CB        -3.5230    4.9310   -0.1080 C.3    20  ILE20       0.0290
     28  CG2       -2.1210    5.5060   -0.7390 C.3    20  ILE20       0.0023
     29  CG1       -3.5940    5.4760    1.3470 C.3    20  ILE20       0.0022
     30  CD1       -2.3570    5.1940    2.2260 C.3    20  ILE20       0.0001
     31  C         -4.7590    4.7050   -2.3650 C.2    20  ILE20       0.2617
     32  O         -4.2060    3.6200   -2.5900 O.2    20  ILE20      -0.2715
     33  N         -5.4060    5.3330   -3.3880 N.am   21  TRP21      -0.1938
     34  CA        -5.3950    4.7680   -4.7850 C.3    21  TRP21       0.2021
     35  CB        -6.6210    3.8650   -5.0310 C.3    21  TRP21       0.0612
     36  CG        -6.7890    3.3770   -6.4480 C.ar   21  TRP21       0.0007
     37  CD1       -7.1340    4.1960   -7.4760 C.ar   21  TRP21       0.0946
     38  NE1       -7.1740    3.4060   -8.6160 N.ar   21  TRP21      -0.2442
     39  CE2       -6.9360    2.0750   -8.3350 C.ar   21  TRP21       0.0810
     40  CZ2       -6.8300    1.0510   -9.2060 C.ar   21  TRP21       0.0191
     41  CH2       -6.3330   -0.2010   -8.7710 C.ar   21  TRP21       0.0015
     42  CZ3       -5.9560   -0.2520   -7.3640 C.ar   21  TRP21       0.0001
     43  CE3       -6.0150    0.8940   -6.5860 C.ar   21  TRP21       0.0012
     44  CD2       -6.6320    2.0560   -6.9830 C.ar   21  TRP21       0.0152
     45  C         -5.1960    5.8550   -5.8260 C.2    21  TRP21       0.3845
     46  O         -4.1840    5.6720   -6.5070 O.co2  21  TRP21      -0.2437
     47  OXT       -5.9640    6.8330   -6.0170 O.co2  21  TRP21      -0.2437
@<TRIPOS>BOND
     1    40    41   ar
     2    40    39   ar
     3    41    42   ar
     4    38    39   ar
     5    38    37   ar
     6    39    44   ar
     7    37    36   ar
     8    42    43   ar
     9    44    43   ar
    10    44    36   ar
    11    46    45   ar
    12    36    35    1
    13    47    45   ar
    14    45    34    1
    15    35    34    1
    16    34    33    1
    17     8     7    2
    18    33    31   am
    19    14    12   ar
    20    32    31    2
    21    16    15    2
    22     7     9   am
    23     7     2    1
    24    31    26    1
    25    10     9    1
    26    10    15    1
    27    10    11    1
    28    12    11    1
    29    12    13   ar
    30     2     1    1
    31     2     3    1
    32    15    17   am
    33     5     4    1
    34    26    25    1
    35    26    27    1
    36    24    23    2
    37    28    27    1
    38     4     3    1
    39     4     6    1
    40    17    18    1
    41    23    25   am
    42    23    18    1
    43    27    29    1
    44    18    19    1
    45    29    30    1
    46    19    21    1
    47    19    20    1
    48    22    21    1
