@<TRIPOS>MOLECULE
../1EDN/PCA2_17-21_NOBACKBONE.pdb
 26 23 0 0 0
SMALL
GASTEIGER

@<TRIPOS>ATOM
      1  CB        -5.9860   -1.2020   -0.4580 C.3    17  LEU17       0.0000
      2  CG        -7.1280   -2.2100   -0.5390 C.3    17  LEU17       0.0000
      3  CD1       -6.7120   -3.3620   -1.4700 C.3    17  LEU17       0.0000
      4  CD2       -7.4980   -2.5610    0.9130 C.3    17  LEU17       0.0000
      5  CB        -9.6810    1.0560   -1.6740 C.3    18  ASP18       0.1258
      6  CG       -11.0010    1.6360   -2.1090 C.2    18  ASP18       0.3654
      7  OD1      -11.5960    2.3310   -1.2790 O.co2  18  ASP18      -0.2456
      8  OD2      -11.5460    1.2700   -3.1630 O.co2  18  ASP18      -0.2456
      9  CB        -8.4260    4.8620    1.7600 C.3    19  ILE19       0.0000
     10  CG2       -7.7310    6.0060    2.5190 C.3    19  ILE19       0.0000
     11  CG1       -9.9240    4.5740    2.2500 C.3    19  ILE19       0.0000
     12  CD1      -10.9740    5.6950    2.0110 C.3    19  ILE19       0.0000
     13  CB        -3.5230    4.9310   -0.1080 C.3    20  ILE20       0.0000
     14  CG2       -2.1210    5.5060   -0.7390 C.3    20  ILE20       0.0000
     15  CG1       -3.5940    5.4760    1.3470 C.3    20  ILE20       0.0000
     16  CD1       -2.3570    5.1940    2.2260 C.3    20  ILE20       0.0000
     17  CB        -6.6210    3.8650   -5.0310 C.3    21  TRP21       0.0327
     18  CG        -6.7890    3.3770   -6.4480 C.ar   21  TRP21      -0.0013
     19  CD1       -7.1340    4.1960   -7.4760 C.ar   21  TRP21       0.0946
     20  NE1       -7.1740    3.4060   -8.6160 N.ar   21  TRP21      -0.2442
     21  CE2       -6.9360    2.0750   -8.3350 C.ar   21  TRP21       0.0810
     22  CZ2       -6.8300    1.0510   -9.2060 C.ar   21  TRP21       0.0191
     23  CH2       -6.3330   -0.2010   -8.7710 C.ar   21  TRP21       0.0015
     24  CZ3       -5.9560   -0.2520   -7.3640 C.ar   21  TRP21       0.0001
     25  CE3       -6.0150    0.8940   -6.5860 C.ar   21  TRP21       0.0012
     26  CD2       -6.6320    2.0560   -6.9830 C.ar   21  TRP21       0.0152
@<TRIPOS>BOND
     1    22    23   ar
     2    22    21   ar
     3    23    24   ar
     4    20    21   ar
     5    20    19   ar
     6    21    26   ar
     7    19    18   ar
     8    24    25   ar
     9    26    25   ar
    10    26    18   ar
    11    18    17    1
    12     8     6   ar
    13     6     5    1
    14     6     7   ar
    15     3     2    1
    16    14    13    1
    17     2     1    1
    18     2     4    1
    19    13    15    1
    20    15    16    1
    21     9    11    1
    22     9    10    1
    23    12    11    1
@<TRIPOS>MOLECULE
16004692
 52 54 0 0 0
SMALL
GASTEIGER

@<TRIPOS>ATOM
      1 BR        -10.3837    5.1619    3.0272 Br      1  LIG11      -0.0503
      2 BR         -6.2225   -0.7180   -8.9635 Br      1  LIG11      -0.0472
      3 S          -3.1726    4.8610    2.2737 S.O2    1  LIG11       0.1104
      4 O          -6.6683    4.2632   -2.4512 O.3     1  LIG11      -0.4724
      5 O          -4.0963    5.0651    3.3661 O.2     1  LIG11      -0.1381
      6 O          -2.7822    3.5421    1.8486 O.2     1  LIG11      -0.1381
      7 O          -6.9767    4.4326   -6.0847 O.3     1  LIG11      -0.4590
      8 N          -1.7906    5.7254    2.6868 N.3     1  LIG11      -0.1771
      9 N          -3.7114    5.8064    1.0260 N.pl3   1  LIG11      -0.1889
     10 N          -2.9461    4.9189   -0.9289 N.ar    1  LIG11      -0.2186
     11 N          -4.3461    4.1222   -2.6656 N.ar    1  LIG11      -0.2008
     12 N          -5.7684    2.4228   -6.3107 N.ar    1  LIG11      -0.2022
     13 N          -7.5347    3.0249   -7.7951 N.ar    1  LIG11      -0.2022
     14 C          -0.6419    5.6527    1.7544 C.3     1  LIG11       0.0185
     15 C          -5.3493    4.8690   -0.5768 C.ar    1  LIG11       0.0848
     16 C          -4.0458    5.1611   -0.1894 C.ar    1  LIG11       0.1532
     17 C          -0.5783    6.8942    0.8708 C.3     1  LIG11      -0.0416
     18 C          -6.5530    4.9829    0.2794 C.ar    1  LIG11      -0.0094
     19 C          -5.4116    4.3884   -1.8864 C.ar    1  LIG11       0.2276
     20 C           0.6257    6.8483   -0.0582 C.3     1  LIG11      -0.0641
     21 C          -7.4250    3.8796    0.4086 C.ar    1  LIG11      -0.0527
     22 C          -6.8894    6.1500    0.9848 C.ar    1  LIG11      -0.0527
     23 C          -6.7208    3.6681   -3.7520 C.3     1  LIG11       0.1252
     24 C          -8.5706    3.9330    1.2083 C.ar    1  LIG11      -0.0472
     25 C          -8.0146    6.1955    1.8202 C.ar    1  LIG11      -0.0472
     26 C          -3.1537    4.3747   -2.1272 C.ar    1  LIG11       0.1219
     27 C          -6.2425    4.6070   -4.8694 C.3     1  LIG11       0.1267
     28 C          -8.8517    5.0891    1.9241 C.ar    1  LIG11       0.0179
     29 C          -6.7256    3.2565   -6.7510 C.ar    1  LIG11       0.3180
     30 C          -5.6378    1.2605   -6.9866 C.ar    1  LIG11       0.0483
     31 C          -7.3604    1.8490   -8.4346 C.ar    1  LIG11       0.0483
     32 C          -6.4195    0.9175   -8.0648 C.ar    1  LIG11       0.0543
     33 H          -1.5296    5.4543    3.6356 H       1  LIG11       0.1493
     34 H          -4.3962    6.4511    1.3969 H       1  LIG11       0.1763
     35 H          -0.6659    4.7388    1.1526 H       1  LIG11       0.0442
     36 H           0.2685    5.5949    2.3636 H       1  LIG11       0.0442
     37 H          -0.5273    7.7976    1.4902 H       1  LIG11       0.0275
     38 H          -1.4828    6.9860    0.2629 H       1  LIG11       0.0275
     39 H           1.5601    6.8631    0.5113 H       1  LIG11       0.0230
     40 H           0.6224    7.7137   -0.7286 H       1  LIG11       0.0230
     41 H           0.6126    5.9434   -0.6744 H       1  LIG11       0.0230
     42 H          -7.2232    2.9541   -0.1303 H       1  LIG11       0.0624
     43 H          -6.2971    7.0562    0.8902 H       1  LIG11       0.0624
     44 H          -7.7756    3.4215   -3.9233 H       1  LIG11       0.0731
     45 H          -6.1896    2.7085   -3.7557 H       1  LIG11       0.0731
     46 H          -9.2270    3.0681    1.2631 H       1  LIG11       0.0629
     47 H          -8.2314    7.1025    2.3784 H       1  LIG11       0.0629
     48 H          -2.2795    4.1356   -2.7227 H       1  LIG11       0.1049
     49 H          -6.4074    5.6462   -4.5608 H       1  LIG11       0.0732
     50 H          -5.1648    4.5245   -5.0562 H       1  LIG11       0.0732
     51 H          -4.8639    0.5977   -6.6105 H       1  LIG11       0.0843
     52 H          -8.0306    1.6826   -9.2729 H       1  LIG11       0.0843
@<TRIPOS>BOND
     1     1    28    1
     2     2    32    1
     3     3     5    2
     4     3     6    2
     5     3     8    1
     6     3     9    1
     7     4    19    1
     8     4    23    1
     9     7    27    1
    10     7    29    1
    11     8    14    1
    12     9    16    1
    13    10    16   ar
    14    10    26   ar
    15    11    19   ar
    16    11    26   ar
    17    12    29   ar
    18    12    30   ar
    19    13    29   ar
    20    13    31   ar
    21    14    17    1
    22    15    16   ar
    23    15    18    1
    24    15    19   ar
    25    17    20    1
    26    18    21   ar
    27    18    22   ar
    28    21    24   ar
    29    22    25   ar
    30    23    27    1
    31    24    28   ar
    32    25    28   ar
    33    30    32   ar
    34    31    32   ar
    35     8    33    1
    36     9    34    1
    37    14    35    1
    38    14    36    1
    39    17    37    1
    40    17    38    1
    41    20    39    1
    42    20    40    1
    43    20    41    1
    44    21    42    1
    45    22    43    1
    46    23    44    1
    47    23    45    1
    48    24    46    1
    49    25    47    1
    50    26    48    1
    51    27    49    1
    52    27    50    1
    53    30    51    1
    54    31    52    1
@<TRIPOS>MOLECULE
../1EDN/PCA2_17-21.pdb
 47 48 0 0 0
SMALL
GASTEIGER

@<TRIPOS>ATOM
      1  N         -4.4680    0.3970   -1.5420 N.3    17  LEU17      -0.1231
      2  CA        -5.5730   -0.5090   -1.8150 C.3    17  LEU17       0.1693
      3  CB        -5.9860   -1.2020   -0.4580 C.3    17  LEU17       0.0284
      4  CG        -7.1280   -2.2100   -0.5390 C.3    17  LEU17       0.0019
      5  CD1       -6.7120   -3.3620   -1.4700 C.3    17  LEU17       0.0001
      6  CD2       -7.4980   -2.5610    0.9130 C.3    17  LEU17       0.0001
      7  C         -6.7000    0.2280   -2.5610 C.2    17  LEU17       0.2592
      8  O         -7.1860   -0.2780   -3.5510 O.2    17  LEU17      -0.2718
      9  N         -7.2650    1.2690   -1.9650 N.am   18  ASP18      -0.1960
     10  CA        -8.5260    1.8930   -2.2590 C.3    18  ASP18       0.1840
     11  CB        -9.6810    1.0560   -1.6740 C.3    18  ASP18       0.1450
     12  CG       -11.0010    1.6360   -2.1090 C.2    18  ASP18       0.3671
     13  OD1      -11.5960    2.3310   -1.2790 O.co2  18  ASP18      -0.2456
     14  OD2      -11.5460    1.2700   -3.1630 O.co2  18  ASP18      -0.2456
     15  C         -8.5570    3.3770   -1.7380 C.2    18  ASP18       0.2622
     16  O         -8.6960    4.2620   -2.5680 O.2    18  ASP18      -0.2715
     17  N         -8.4180    3.5730   -0.4160 N.am   19  ILE19      -0.1963
     18  CA        -8.3980    4.9040    0.1930 C.3    19  ILE19       0.1727
     19  CB        -8.4260    4.8620    1.7600 C.3    19  ILE19       0.0290
     20  CG2       -7.7310    6.0060    2.5190 C.3    19  ILE19       0.0023
     21  CG1       -9.9240    4.5740    2.2500 C.3    19  ILE19       0.0022
     22  CD1      -10.9740    5.6950    2.0110 C.3    19  ILE19       0.0001
     23  C         -7.1570    5.7010   -0.3260 C.2    19  ILE19       0.2616
     24  O         -7.3050    6.7970   -0.9200 O.2    19  ILE19      -0.2715
     25  N         -5.9900    5.0720   -0.2260 N.am   20  ILE20      -0.1963
     26  CA        -4.7520    5.3490   -0.9430 C.3    20  ILE20       0.1727
     27  CB        -3.5230    4.9310   -0.1080 C.3    20  ILE20       0.0290
     28  CG2       -2.1210    5.5060   -0.7390 C.3    20  ILE20       0.0023
     29  CG1       -3.5940    5.4760    1.3470 C.3    20  ILE20       0.0022
     30  CD1       -2.3570    5.1940    2.2260 C.3    20  ILE20       0.0001
     31  C         -4.7590    4.7050   -2.3650 C.2    20  ILE20       0.2617
     32  O         -4.2060    3.6200   -2.5900 O.2    20  ILE20      -0.2715
     33  N         -5.4060    5.3330   -3.3880 N.am   21  TRP21      -0.1938
     34  CA        -5.3950    4.7680   -4.7850 C.3    21  TRP21       0.2021
     35  CB        -6.6210    3.8650   -5.0310 C.3    21  TRP21       0.0612
     36  CG        -6.7890    3.3770   -6.4480 C.ar   21  TRP21       0.0007
     37  CD1       -7.1340    4.1960   -7.4760 C.ar   21  TRP21       0.0946
     38  NE1       -7.1740    3.4060   -8.6160 N.ar   21  TRP21      -0.2442
     39  CE2       -6.9360    2.0750   -8.3350 C.ar   21  TRP21       0.0810
     40  CZ2       -6.8300    1.0510   -9.2060 C.ar   21  TRP21       0.0191
     41  CH2       -6.3330   -0.2010   -8.7710 C.ar   21  TRP21       0.0015
     42  CZ3       -5.9560   -0.2520   -7.3640 C.ar   21  TRP21       0.0001
     43  CE3       -6.0150    0.8940   -6.5860 C.ar   21  TRP21       0.0012
     44  CD2       -6.6320    2.0560   -6.9830 C.ar   21  TRP21       0.0152
     45  C         -5.1960    5.8550   -5.8260 C.2    21  TRP21       0.3845
     46  O         -4.1840    5.6720   -6.5070 O.co2  21  TRP21      -0.2437
     47  OXT       -5.9640    6.8330   -6.0170 O.co2  21  TRP21      -0.2437
@<TRIPOS>BOND
     1    40    41   ar
     2    40    39   ar
     3    41    42   ar
     4    38    39   ar
     5    38    37   ar
     6    39    44   ar
     7    37    36   ar
     8    42    43   ar
     9    44    43   ar
    10    44    36   ar
    11    46    45   ar
    12    36    35    1
    13    47    45   ar
    14    45    34    1
    15    35    34    1
    16    34    33    1
    17     8     7    2
    18    33    31   am
    19    14    12   ar
    20    32    31    2
    21    16    15    2
    22     7     9   am
    23     7     2    1
    24    31    26    1
    25    10     9    1
    26    10    15    1
    27    10    11    1
    28    12    11    1
    29    12    13   ar
    30     2     1    1
    31     2     3    1
    32    15    17   am
    33     5     4    1
    34    26    25    1
    35    26    27    1
    36    24    23    2
    37    28    27    1
    38     4     3    1
    39     4     6    1
    40    17    18    1
    41    23    25   am
    42    23    18    1
    43    27    29    1
    44    18    19    1
    45    29    30    1
    46    19    21    1
    47    19    20    1
    48    22    21    1
