@<TRIPOS>MOLECULE
../1EDN/PCA2_17-21_NOBACKBONE.pdb
 26 23 0 0 0
SMALL
GASTEIGER

@<TRIPOS>ATOM
      1  CB        -5.9860   -1.2020   -0.4580 C.3    17  LEU17       0.0000
      2  CG        -7.1280   -2.2100   -0.5390 C.3    17  LEU17       0.0000
      3  CD1       -6.7120   -3.3620   -1.4700 C.3    17  LEU17       0.0000
      4  CD2       -7.4980   -2.5610    0.9130 C.3    17  LEU17       0.0000
      5  CB        -9.6810    1.0560   -1.6740 C.3    18  ASP18       0.1258
      6  CG       -11.0010    1.6360   -2.1090 C.2    18  ASP18       0.3654
      7  OD1      -11.5960    2.3310   -1.2790 O.co2  18  ASP18      -0.2456
      8  OD2      -11.5460    1.2700   -3.1630 O.co2  18  ASP18      -0.2456
      9  CB        -8.4260    4.8620    1.7600 C.3    19  ILE19       0.0000
     10  CG2       -7.7310    6.0060    2.5190 C.3    19  ILE19       0.0000
     11  CG1       -9.9240    4.5740    2.2500 C.3    19  ILE19       0.0000
     12  CD1      -10.9740    5.6950    2.0110 C.3    19  ILE19       0.0000
     13  CB        -3.5230    4.9310   -0.1080 C.3    20  ILE20       0.0000
     14  CG2       -2.1210    5.5060   -0.7390 C.3    20  ILE20       0.0000
     15  CG1       -3.5940    5.4760    1.3470 C.3    20  ILE20       0.0000
     16  CD1       -2.3570    5.1940    2.2260 C.3    20  ILE20       0.0000
     17  CB        -6.6210    3.8650   -5.0310 C.3    21  TRP21       0.0327
     18  CG        -6.7890    3.3770   -6.4480 C.ar   21  TRP21      -0.0013
     19  CD1       -7.1340    4.1960   -7.4760 C.ar   21  TRP21       0.0946
     20  NE1       -7.1740    3.4060   -8.6160 N.ar   21  TRP21      -0.2442
     21  CE2       -6.9360    2.0750   -8.3350 C.ar   21  TRP21       0.0810
     22  CZ2       -6.8300    1.0510   -9.2060 C.ar   21  TRP21       0.0191
     23  CH2       -6.3330   -0.2010   -8.7710 C.ar   21  TRP21       0.0015
     24  CZ3       -5.9560   -0.2520   -7.3640 C.ar   21  TRP21       0.0001
     25  CE3       -6.0150    0.8940   -6.5860 C.ar   21  TRP21       0.0012
     26  CD2       -6.6320    2.0560   -6.9830 C.ar   21  TRP21       0.0152
@<TRIPOS>BOND
     1    22    23   ar
     2    22    21   ar
     3    23    24   ar
     4    20    21   ar
     5    20    19   ar
     6    21    26   ar
     7    19    18   ar
     8    24    25   ar
     9    26    25   ar
    10    26    18   ar
    11    18    17    1
    12     8     6   ar
    13     6     5    1
    14     6     7   ar
    15     3     2    1
    16    14    13    1
    17     2     1    1
    18     2     4    1
    19    13    15    1
    20    15    16    1
    21     9    11    1
    22     9    10    1
    23    12    11    1
@<TRIPOS>MOLECULE
HTS1204-03362316-01
 87 90 0 0 0
SMALL
USER_CHARGES

@<TRIPOS>ATOM
      1 C1         -6.8825    2.5176   -6.1610 C.ar    1  UNK11      -0.0199
      2 N1         -6.5927    0.3117   -6.4201 N.ar    1  UNK11      -0.3494
      3 C2         -2.8883    5.1286   -2.0450 C.2     1  UNK11       0.3028
      4 C3         -6.9018    1.2962   -5.5245 C.ar    1  UNK11       0.0086
      5 C4         -8.8475    3.3425   -3.6850 C.2     1  UNK11       0.2342
      6 C5         -6.6226    2.2259   -7.5493 C.ar    1  UNK11       0.0031
      7 C6         -5.8978    2.9583   -2.6145 C.2     1  UNK11       0.2340
      8 C7         -6.4464    0.8445   -7.6790 C.ar    1  UNK11       0.0491
      9 N2         -3.7844    4.2120   -2.4408 N.am    1  UNK11      -0.2879
     10 N3         -2.5100    5.3312   -0.7441 N.am    1  UNK11      -0.2856
     11 N4         -6.4210    4.0970   -3.1846 N.am    1  UNK11      -0.3022
     12 N5         -9.1333    3.5040   -2.3401 N.am    1  UNK11      -0.3054
     13 C8         -7.5614    4.0894   -4.1280 C.3     1  UNK11       0.1034
     14 C9         -4.5869    3.1486   -1.8168 C.3     1  UNK11       0.1011
     15 C10       -10.0669    2.6069   -1.6237 C.3     1  UNK11       0.0680
     16 C11        -7.1874    3.8846   -5.6117 C.3     1  UNK11       0.0013
     17 C12       -11.3935    2.1499   -2.3162 C.2     1  UNK11       0.0623
     18 C13       -10.6261    3.2807   -0.3580 C.3     1  UNK11       0.0133
     19 O1         -2.4189    5.8144   -2.9613 O.2     1  UNK11      -0.2526
     20 O2         -6.5200    1.9031   -2.5699 O.2     1  UNK11      -0.2738
     21 O3         -9.6138    2.8402   -4.5000 O.2     1  UNK11      -0.2738
     22 N6         -8.3461    3.4040    0.6473 N.ar    1  UNK11      -0.2598
     23 O4        -12.2193    3.0652   -2.6167 O.co2   1  UNK11      -0.5479
     24 C14        -3.7643    1.8411   -1.7662 C.3     1  UNK11      -0.0236
     25 C15        -9.6480    3.7787    0.6872 C.ar    1  UNK11       0.0434
     26 O5        -11.5605    0.8911   -2.3503 O.co2   1  UNK11      -0.5479
     27 C16        -6.5090   -1.0906   -6.0835 C.3     1  UNK11       0.0119
     28 C17        -1.6186    6.4847   -0.5286 C.3     1  UNK11       0.0161
     29 C18        -2.9063    4.5888    0.4449 C.3     1  UNK11       0.0161
     30 C19        -6.2085    0.2281   -8.9179 C.ar    1  UNK11      -0.0376
     31 C20        -6.5658    3.0186   -8.7168 C.ar    1  UNK11      -0.0523
     32 C21        -4.3408    0.6732   -0.9319 C.3     1  UNK11      -0.0446
     33 C22        -7.5490    3.8448    1.6450 C.ar    1  UNK11       0.0279
     34 C23       -10.1494    4.5995    1.7021 C.ar    1  UNK11      -0.0403
     35 C24        -3.3916   -0.5272   -0.9954 C.3     1  UNK11      -0.0626
     36 C25        -4.6023    1.0424    0.5256 C.3     1  UNK11      -0.0626
     37 C26        -1.2651    6.8394    0.9205 C.3     1  UNK11      -0.0371
     38 C27        -4.0065    5.2948    1.2306 C.3     1  UNK11      -0.0371
     39 C28        -6.3458    2.4135   -9.9602 C.ar    1  UNK11      -0.0611
     40 C29        -6.1681    1.0369  -10.0563 C.ar    1  UNK11      -0.0598
     41 C30        -7.9660    4.6680    2.6771 C.ar    1  UNK11      -0.0436
     42 C31        -9.2964    5.0549    2.7016 C.ar    1  UNK11      -0.0586
     43 C32        -2.4372    7.2597    1.8162 C.3     1  UNK11      -0.0516
     44 C33        -3.8287    6.8044    1.3866 C.3     1  UNK11      -0.0516
     45 H          -7.1667    1.0276   -4.5128 H       1  UNK11       0.0812
     46 H          -3.7996    4.1881   -3.4547 H       1  UNK11       0.1510
     47 H          -5.8455    4.9295   -3.1565 H       1  UNK11       0.1495
     48 H          -8.3351    3.7527   -1.7706 H       1  UNK11       0.1494
     49 H          -7.8792    5.1437   -4.0824 H       1  UNK11       0.0598
     50 H          -4.9028    3.4840   -0.8308 H       1  UNK11       0.0595
     51 H          -9.4786    1.7202   -1.3554 H       1  UNK11       0.0564
     52 H          -8.0179    4.2805   -6.2142 H       1  UNK11       0.0337
     53 H          -6.3219    4.5243   -5.8342 H       1  UNK11       0.0337
     54 H         -11.2209    4.1567   -0.6534 H       1  UNK11       0.0350
     55 H         -11.3067    2.5864    0.1549 H       1  UNK11       0.0350
     56 H          -3.6203    1.4861   -2.7966 H       1  UNK11       0.0290
     57 H          -2.7558    2.0648   -1.3940 H       1  UNK11       0.0290
     58 H          -6.5625   -1.2124   -4.9982 H       1  UNK11       0.0456
     59 H          -7.3422   -1.6121   -6.5603 H       1  UNK11       0.0456
     60 H          -5.5518   -1.4768   -6.4437 H       1  UNK11       0.0456
     61 H          -0.6866    6.2671   -1.0664 H       1  UNK11       0.0465
     62 H          -2.0660    7.3608   -1.0154 H       1  UNK11       0.0465
     63 H          -3.2094    3.5792    0.1967 H       1  UNK11       0.0465
     64 H          -2.0256    4.4262    1.0741 H       1  UNK11       0.0465
     65 H          -6.0915   -0.8472   -8.9986 H       1  UNK11       0.0638
     66 H          -6.7281    4.0900   -8.6558 H       1  UNK11       0.0624
     67 H          -5.2880    0.3405   -1.3665 H       1  UNK11       0.0296
     68 H          -6.5229    3.5012    1.5963 H       1  UNK11       0.0829
     69 H         -11.1998    4.8768    1.7074 H       1  UNK11       0.0635
     70 H          -2.4182   -0.2896   -0.5536 H       1  UNK11       0.0232
     71 H          -3.8108   -1.3815   -0.4527 H       1  UNK11       0.0232
     72 H          -3.2299   -0.8401   -2.0323 H       1  UNK11       0.0232
     73 H          -3.6908    1.3904    1.0214 H       1  UNK11       0.0232
     74 H          -5.3596    1.8245    0.6018 H       1  UNK11       0.0232
     75 H          -4.9780    0.1777    1.0835 H       1  UNK11       0.0232
     76 H          -0.7284    6.0069    1.3910 H       1  UNK11       0.0280
     77 H          -0.5376    7.6615    0.9073 H       1  UNK11       0.0280
     78 H          -4.9671    5.1348    0.7293 H       1  UNK11       0.0280
     79 H          -4.0891    4.8273    2.2191 H       1  UNK11       0.0280
     80 H          -6.3323    3.0247  -10.8582 H       1  UNK11       0.0618
     81 H          -6.0135    0.5796  -11.0300 H       1  UNK11       0.0618
     82 H          -7.2734    4.9916    3.4441 H       1  UNK11       0.0633
     83 H          -9.6751    5.6952    3.4916 H       1  UNK11       0.0619
     84 H          -2.2397    6.9151    2.8390 H       1  UNK11       0.0266
     85 H          -2.4504    8.3560    1.8701 H       1  UNK11       0.0266
     86 H          -4.0944    7.2993    0.4438 H       1  UNK11       0.0266
     87 H          -4.5605    7.1648    2.1206 H       1  UNK11       0.0266
@<TRIPOS>BOND
     1     2     4   ar
     2     3     9   am
     3     1     4   ar
     4     5    13    1
     5     1     6   ar
     6     7    11   am
     7     6     8   ar
     8     9    14    1
     9     3    10   am
    10    11    13    1
    11     5    12   am
    12    13    16    1
    13     7    14    1
    14    12    15    1
    15     1    16    1
    16    15    17    1
    17    15    18    1
    18     3    19    2
    19     7    20    2
    20     5    21    2
    21    22    25   ar
    22    17    23   ar
    23    14    24    1
    24    18    25    1
    25    17    26   ar
    26     2    27    1
    27    10    28    1
    28    10    29    1
    29     8    30   ar
    30     6    31   ar
    31    24    32    1
    32    22    33   ar
    33    25    34   ar
    34    32    35    1
    35    32    36    1
    36    28    37    1
    37    29    38    1
    38    31    39   ar
    39    39    40   ar
    40    41    42   ar
    41    34    42   ar
    42    37    43    1
    43    38    44    1
    44     2     8   ar
    45    30    40   ar
    46    33    41   ar
    47    43    44    1
    48     4    45    1
    49     9    46    1
    50    11    47    1
    51    12    48    1
    52    13    49    1
    53    14    50    1
    54    15    51    1
    55    16    52    1
    56    16    53    1
    57    18    54    1
    58    18    55    1
    59    24    56    1
    60    24    57    1
    61    27    58    1
    62    27    59    1
    63    27    60    1
    64    28    61    1
    65    28    62    1
    66    29    63    1
    67    29    64    1
    68    30    65    1
    69    31    66    1
    70    32    67    1
    71    33    68    1
    72    34    69    1
    73    35    70    1
    74    35    71    1
    75    35    72    1
    76    36    73    1
    77    36    74    1
    78    36    75    1
    79    37    76    1
    80    37    77    1
    81    38    78    1
    82    38    79    1
    83    39    80    1
    84    40    81    1
    85    41    82    1
    86    42    83    1
    87    43    84    1
    88    43    85    1
    89    44    86    1
    90    44    87    1
@<TRIPOS>MOLECULE
../1EDN/PCA2_17-21.pdb
 47 48 0 0 0
SMALL
GASTEIGER

@<TRIPOS>ATOM
      1  N         -4.4680    0.3970   -1.5420 N.3    17  LEU17      -0.1231
      2  CA        -5.5730   -0.5090   -1.8150 C.3    17  LEU17       0.1693
      3  CB        -5.9860   -1.2020   -0.4580 C.3    17  LEU17       0.0284
      4  CG        -7.1280   -2.2100   -0.5390 C.3    17  LEU17       0.0019
      5  CD1       -6.7120   -3.3620   -1.4700 C.3    17  LEU17       0.0001
      6  CD2       -7.4980   -2.5610    0.9130 C.3    17  LEU17       0.0001
      7  C         -6.7000    0.2280   -2.5610 C.2    17  LEU17       0.2592
      8  O         -7.1860   -0.2780   -3.5510 O.2    17  LEU17      -0.2718
      9  N         -7.2650    1.2690   -1.9650 N.am   18  ASP18      -0.1960
     10  CA        -8.5260    1.8930   -2.2590 C.3    18  ASP18       0.1840
     11  CB        -9.6810    1.0560   -1.6740 C.3    18  ASP18       0.1450
     12  CG       -11.0010    1.6360   -2.1090 C.2    18  ASP18       0.3671
     13  OD1      -11.5960    2.3310   -1.2790 O.co2  18  ASP18      -0.2456
     14  OD2      -11.5460    1.2700   -3.1630 O.co2  18  ASP18      -0.2456
     15  C         -8.5570    3.3770   -1.7380 C.2    18  ASP18       0.2622
     16  O         -8.6960    4.2620   -2.5680 O.2    18  ASP18      -0.2715
     17  N         -8.4180    3.5730   -0.4160 N.am   19  ILE19      -0.1963
     18  CA        -8.3980    4.9040    0.1930 C.3    19  ILE19       0.1727
     19  CB        -8.4260    4.8620    1.7600 C.3    19  ILE19       0.0290
     20  CG2       -7.7310    6.0060    2.5190 C.3    19  ILE19       0.0023
     21  CG1       -9.9240    4.5740    2.2500 C.3    19  ILE19       0.0022
     22  CD1      -10.9740    5.6950    2.0110 C.3    19  ILE19       0.0001
     23  C         -7.1570    5.7010   -0.3260 C.2    19  ILE19       0.2616
     24  O         -7.3050    6.7970   -0.9200 O.2    19  ILE19      -0.2715
     25  N         -5.9900    5.0720   -0.2260 N.am   20  ILE20      -0.1963
     26  CA        -4.7520    5.3490   -0.9430 C.3    20  ILE20       0.1727
     27  CB        -3.5230    4.9310   -0.1080 C.3    20  ILE20       0.0290
     28  CG2       -2.1210    5.5060   -0.7390 C.3    20  ILE20       0.0023
     29  CG1       -3.5940    5.4760    1.3470 C.3    20  ILE20       0.0022
     30  CD1       -2.3570    5.1940    2.2260 C.3    20  ILE20       0.0001
     31  C         -4.7590    4.7050   -2.3650 C.2    20  ILE20       0.2617
     32  O         -4.2060    3.6200   -2.5900 O.2    20  ILE20      -0.2715
     33  N         -5.4060    5.3330   -3.3880 N.am   21  TRP21      -0.1938
     34  CA        -5.3950    4.7680   -4.7850 C.3    21  TRP21       0.2021
     35  CB        -6.6210    3.8650   -5.0310 C.3    21  TRP21       0.0612
     36  CG        -6.7890    3.3770   -6.4480 C.ar   21  TRP21       0.0007
     37  CD1       -7.1340    4.1960   -7.4760 C.ar   21  TRP21       0.0946
     38  NE1       -7.1740    3.4060   -8.6160 N.ar   21  TRP21      -0.2442
     39  CE2       -6.9360    2.0750   -8.3350 C.ar   21  TRP21       0.0810
     40  CZ2       -6.8300    1.0510   -9.2060 C.ar   21  TRP21       0.0191
     41  CH2       -6.3330   -0.2010   -8.7710 C.ar   21  TRP21       0.0015
     42  CZ3       -5.9560   -0.2520   -7.3640 C.ar   21  TRP21       0.0001
     43  CE3       -6.0150    0.8940   -6.5860 C.ar   21  TRP21       0.0012
     44  CD2       -6.6320    2.0560   -6.9830 C.ar   21  TRP21       0.0152
     45  C         -5.1960    5.8550   -5.8260 C.2    21  TRP21       0.3845
     46  O         -4.1840    5.6720   -6.5070 O.co2  21  TRP21      -0.2437
     47  OXT       -5.9640    6.8330   -6.0170 O.co2  21  TRP21      -0.2437
@<TRIPOS>BOND
     1    40    41   ar
     2    40    39   ar
     3    41    42   ar
     4    38    39   ar
     5    38    37   ar
     6    39    44   ar
     7    37    36   ar
     8    42    43   ar
     9    44    43   ar
    10    44    36   ar
    11    46    45   ar
    12    36    35    1
    13    47    45   ar
    14    45    34    1
    15    35    34    1
    16    34    33    1
    17     8     7    2
    18    33    31   am
    19    14    12   ar
    20    32    31    2
    21    16    15    2
    22     7     9   am
    23     7     2    1
    24    31    26    1
    25    10     9    1
    26    10    15    1
    27    10    11    1
    28    12    11    1
    29    12    13   ar
    30     2     1    1
    31     2     3    1
    32    15    17   am
    33     5     4    1
    34    26    25    1
    35    26    27    1
    36    24    23    2
    37    28    27    1
    38     4     3    1
    39     4     6    1
    40    17    18    1
    41    23    25   am
    42    23    18    1
    43    27    29    1
    44    18    19    1
    45    29    30    1
    46    19    21    1
    47    19    20    1
    48    22    21    1
