@<TRIPOS>MOLECULE
../1EDN/PCA2_17-21_NOBACKBONE.pdb
 26 23 0 0 0
SMALL
GASTEIGER

@<TRIPOS>ATOM
      1  CB        -5.9860   -1.2020   -0.4580 C.3    17  LEU17       0.0000
      2  CG        -7.1280   -2.2100   -0.5390 C.3    17  LEU17       0.0000
      3  CD1       -6.7120   -3.3620   -1.4700 C.3    17  LEU17       0.0000
      4  CD2       -7.4980   -2.5610    0.9130 C.3    17  LEU17       0.0000
      5  CB        -9.6810    1.0560   -1.6740 C.3    18  ASP18       0.1258
      6  CG       -11.0010    1.6360   -2.1090 C.2    18  ASP18       0.3654
      7  OD1      -11.5960    2.3310   -1.2790 O.co2  18  ASP18      -0.2456
      8  OD2      -11.5460    1.2700   -3.1630 O.co2  18  ASP18      -0.2456
      9  CB        -8.4260    4.8620    1.7600 C.3    19  ILE19       0.0000
     10  CG2       -7.7310    6.0060    2.5190 C.3    19  ILE19       0.0000
     11  CG1       -9.9240    4.5740    2.2500 C.3    19  ILE19       0.0000
     12  CD1      -10.9740    5.6950    2.0110 C.3    19  ILE19       0.0000
     13  CB        -3.5230    4.9310   -0.1080 C.3    20  ILE20       0.0000
     14  CG2       -2.1210    5.5060   -0.7390 C.3    20  ILE20       0.0000
     15  CG1       -3.5940    5.4760    1.3470 C.3    20  ILE20       0.0000
     16  CD1       -2.3570    5.1940    2.2260 C.3    20  ILE20       0.0000
     17  CB        -6.6210    3.8650   -5.0310 C.3    21  TRP21       0.0327
     18  CG        -6.7890    3.3770   -6.4480 C.ar   21  TRP21      -0.0013
     19  CD1       -7.1340    4.1960   -7.4760 C.ar   21  TRP21       0.0946
     20  NE1       -7.1740    3.4060   -8.6160 N.ar   21  TRP21      -0.2442
     21  CE2       -6.9360    2.0750   -8.3350 C.ar   21  TRP21       0.0810
     22  CZ2       -6.8300    1.0510   -9.2060 C.ar   21  TRP21       0.0191
     23  CH2       -6.3330   -0.2010   -8.7710 C.ar   21  TRP21       0.0015
     24  CZ3       -5.9560   -0.2520   -7.3640 C.ar   21  TRP21       0.0001
     25  CE3       -6.0150    0.8940   -6.5860 C.ar   21  TRP21       0.0012
     26  CD2       -6.6320    2.0560   -6.9830 C.ar   21  TRP21       0.0152
@<TRIPOS>BOND
     1    22    23   ar
     2    22    21   ar
     3    23    24   ar
     4    20    21   ar
     5    20    19   ar
     6    21    26   ar
     7    19    18   ar
     8    24    25   ar
     9    26    25   ar
    10    26    18   ar
    11    18    17    1
    12     8     6   ar
    13     6     5    1
    14     6     7   ar
    15     3     2    1
    16    14    13    1
    17     2     1    1
    18     2     4    1
    19    13    15    1
    20    15    16    1
    21     9    11    1
    22     9    10    1
    23    12    11    1
@<TRIPOS>MOLECULE
23693553
 97 99 0 0 0
SMALL
GASTEIGER

@<TRIPOS>ATOM
      1 O          -5.9836    5.1984    2.4541 O.2     1  LIG11      -0.2526
      2 O          -8.4745    1.4889    0.5682 O.2     1  LIG11      -0.2731
      3 O          -7.2856    4.2114   -1.6963 O.2     1  LIG11      -0.2689
      4 O         -10.2734   -0.5223   -1.9324 O.co2   1  LIG11      -0.5479
      5 OXT        -8.5869    0.6401   -2.9224 O.co2   1  LIG11      -0.5479
      6 O          -6.3351   -0.5172   -7.9378 O.3     1  LIG11      -0.4515
      7 O          -6.6949    0.8734   -9.7510 O.2     1  LIG11      -0.2227
      8 N          -4.3249    4.7190    0.9089 N.am    1  LIG11      -0.2801
      9 N          -6.4931    3.8842    0.6737 N.am    1  LIG11      -0.2879
     10 N          -9.0544    2.8536   -1.1743 N.am    1  LIG11      -0.2273
     11 N          -9.1314    2.4239   -4.3941 N.4     1  LIG11       0.2276
     12 N          -6.5855    1.7184   -7.6052 N.ar    1  LIG11      -0.2526
     13 C          -3.7917    3.7693   -0.0980 C.3     1  LIG11       0.0249
     14 C          -3.4980    5.8342    1.4203 C.3     1  LIG11       0.0249
     15 C          -2.4466    4.1668   -0.7151 C.3     1  LIG11      -0.0344
     16 C          -2.3031    6.2527    0.5406 C.3     1  LIG11      -0.0344
     17 C          -2.3446    5.6710   -0.8582 C.3     1  LIG11      -0.0497
     18 CA         -7.9340    3.8159    0.9662 C.3     1  LIG11       0.1019
     19 C          -9.9311    5.4737    1.6262 C.3     1  LIG11      -0.0356
     20 C          -8.6119    5.2061    0.8439 C.3     1  LIG11      -0.0210
     21 C          -5.6214    4.6204    1.4334 C.2     1  LIG11       0.3033
     22 C          -3.6909    2.3450    0.4582 C.3     1  LIG11      -0.0464
     23 C          -3.0146    5.6099    2.8587 C.3     1  LIG11      -0.0464
     24 C          -8.5585    2.6397    0.1264 C.2     1  LIG11       0.2429
     25 C         -11.1245    4.8781    0.8823 C.3     1  LIG11      -0.0600
     26 C          -9.9114    4.9110    3.0562 C.3     1  LIG11      -0.0600
     27 C         -10.1432    6.9998    1.7065 C.3     1  LIG11      -0.0600
     28 CA        -10.0977    1.8624   -1.5941 C.3     1  LIG11       0.0730
     29 C         -11.4314    1.8070   -0.8188 C.3     1  LIG11      -0.0286
     30 C          -8.1656    3.4215   -2.0911 C.2     1  LIG11       0.2708
     31 CA         -8.1982    3.3230   -3.6510 C.3     1  LIG11       0.0579
     32 C         -11.4983    1.1013    0.5350 C.3     1  LIG11      -0.0513
     33 C          -6.7405    3.0164   -4.1248 C.3     1  LIG11       0.0261
     34 C          -9.5601    0.4901   -2.1022 C.2     1  LIG11       0.0626
     35 C          -6.6426    2.7907   -5.6069 C.ar    1  LIG11      -0.0158
     36 C         -12.8699    1.2576    1.2119 C.3     1  LIG11      -0.0558
     37 C          -6.8639    3.7489   -6.6339 C.ar    1  LIG11       0.0038
     38 C          -6.4405    1.5772   -6.2294 C.ar    1  LIG11       0.0202
     39 C          -6.8663    3.0661   -7.8557 C.ar    1  LIG11       0.0598
     40 C         -14.0483    0.7991    0.3660 C.3     1  LIG11      -0.0653
     41 C          -7.1228    5.1365   -6.6170 C.ar    1  LIG11      -0.0523
     42 C          -7.1437    3.7418   -9.0593 C.ar    1  LIG11      -0.0371
     43 C          -7.3989    5.8047   -7.8114 C.ar    1  LIG11      -0.0611
     44 C          -6.5299    0.6733   -8.5576 C.2     1  LIG11       0.4196
     45 C          -7.4146    5.1130   -9.0143 C.ar    1  LIG11      -0.0598
     46 C          -6.3703   -1.6393   -8.8202 C.3     1  LIG11       0.0835
     47 H          -6.3133    3.9586   -0.3172 H       1  LIG11       0.1510
     48 H1         -8.9396    2.3841   -5.3982 H       1  LIG11       0.2002
     49 H2        -10.1278    2.5968   -4.2785 H       1  LIG11       0.2002
     50 H3         -8.9098    1.4543   -4.0423 H       1  LIG11       0.2002
     51 H          -4.5041    3.7539   -0.9303 H       1  LIG11       0.0498
     52 H          -4.1729    6.7024    1.4494 H       1  LIG11       0.0498
     53 H          -2.3360    3.6865   -1.6949 H       1  LIG11       0.0283
     54 H          -1.6153    3.8020   -0.0971 H       1  LIG11       0.0283
     55 H          -1.3617    5.9394    1.0129 H       1  LIG11       0.0283
     56 H          -2.2518    7.3468    0.4869 H       1  LIG11       0.0283
     57 H          -3.1914    6.0724   -1.4266 H       1  LIG11       0.0266
     58 H          -1.4292    5.9369   -1.3984 H       1  LIG11       0.0266
     59 HA         -7.9880    3.4957    2.0129 H       1  LIG11       0.0595
     60 H          -8.7769    5.4569   -0.2097 H       1  LIG11       0.0293
     61 H          -7.8959    5.9641    1.1861 H       1  LIG11       0.0293
     62 H          -3.0118    2.3057    1.3162 H       1  LIG11       0.0248
     63 H          -3.3156    1.6570   -0.3074 H       1  LIG11       0.0248
     64 H          -4.6620    1.9655    0.7902 H       1  LIG11       0.0248
     65 H          -2.3957    4.7096    2.9295 H       1  LIG11       0.0248
     66 H          -3.8435    5.4986    3.5612 H       1  LIG11       0.0248
     67 H          -2.4196    6.4660    3.2000 H       1  LIG11       0.0248
     68 H         -11.1193    5.1508   -0.1790 H       1  LIG11       0.0235
     69 H         -12.0782    5.2114    1.3063 H       1  LIG11       0.0235
     70 H         -11.0983    3.7959    0.9681 H       1  LIG11       0.0235
     71 H          -9.0407    5.2712    3.6134 H       1  LIG11       0.0235
     72 H          -9.8928    3.8152    3.0613 H       1  LIG11       0.0235
     73 H         -10.8102    5.2110    3.6070 H       1  LIG11       0.0235
     74 H          -9.3498    7.4783    2.2921 H       1  LIG11       0.0235
     75 H         -11.0985    7.2450    2.1852 H       1  LIG11       0.0235
     76 H         -10.1451    7.4520    0.7086 H       1  LIG11       0.0235
     77 HA        -10.4792    2.3222   -2.5041 H       1  LIG11       0.0567
     78 H         -12.1408    1.2862   -1.4784 H       1  LIG11       0.0287
     79 H         -11.8316    2.8219   -0.7366 H       1  LIG11       0.0287
     80 HA         -8.4820    4.3245   -3.9952 H       1  LIG11       0.0952
     81 H         -10.7590    1.5085    1.2273 H       1  LIG11       0.0266
     82 H         -11.2763    0.0352    0.4183 H       1  LIG11       0.0266
     83 H          -6.3610    2.1321   -3.5954 H       1  LIG11       0.0374
     84 H          -6.0705    3.8413   -3.8511 H       1  LIG11       0.0374
     85 H         -13.0224    2.3079    1.4882 H       1  LIG11       0.0263
     86 H         -12.8621    0.6861    2.1474 H       1  LIG11       0.0263
     87 H          -6.2474    0.5991   -5.8011 H       1  LIG11       0.0818
     88 H         -14.1930    1.4468   -0.5043 H       1  LIG11       0.0230
     89 H         -14.9712    0.8397    0.9547 H       1  LIG11       0.0230
     90 H         -13.9097   -0.2281    0.0173 H       1  LIG11       0.0230
     91 H          -7.1055    5.6975   -5.6866 H       1  LIG11       0.0624
     92 H          -7.1553    3.2242  -10.0155 H       1  LIG11       0.0638
     93 H          -7.5994    6.8741   -7.7994 H       1  LIG11       0.0618
     94 H          -7.6322    5.6432   -9.9393 H       1  LIG11       0.0618
     95 H          -6.3137   -2.5498   -8.2161 H       1  LIG11       0.0661
     96 H          -5.5126   -1.6151   -9.4985 H       1  LIG11       0.0661
     97 H          -7.3095   -1.6604   -9.3837 H       1  LIG11       0.0661
@<TRIPOS>BOND
     1     1    21    2
     2     2    24    2
     3     3    30    2
     4     4    34   ar
     5     5    34   ar
     6     6    44    1
     7     6    46    1
     8     7    44    2
     9     8    13    1
    10     8    14    1
    11     9    21   am
    12    10    24   am
    13    10    30   am
    14    12    39   ar
    15    12    38   ar
    16    12    44   am
    17    13    15    1
    18    13    22    1
    19    14    16    1
    20    14    23    1
    21    15    17    1
    22    16    17    1
    23    18     9    1
    24    18    24    1
    25    18    20    1
    26    19    20    1
    27    19    27    1
    28    19    26    1
    29    19    25    1
    30    21     8   am
    31    28    34    1
    32    28    29    1
    33    28    10    1
    34    29    32    1
    35    31    33    1
    36    31    11    1
    37    31    30    1
    38    32    36    1
    39    33    35    1
    40    35    38   ar
    41    35    37   ar
    42    36    40    1
    43    37    39   ar
    44    37    41   ar
    45    39    42   ar
    46    41    43   ar
    47    42    45   ar
    48    43    45   ar
    49     9    47    1
    50    11    48    1
    51    11    49    1
    52    11    50    1
    53    13    51    1
    54    14    52    1
    55    15    53    1
    56    15    54    1
    57    16    55    1
    58    16    56    1
    59    17    57    1
    60    17    58    1
    61    18    59    1
    62    20    60    1
    63    20    61    1
    64    22    62    1
    65    22    63    1
    66    22    64    1
    67    23    65    1
    68    23    66    1
    69    23    67    1
    70    25    68    1
    71    25    69    1
    72    25    70    1
    73    26    71    1
    74    26    72    1
    75    26    73    1
    76    27    74    1
    77    27    75    1
    78    27    76    1
    79    28    77    1
    80    29    78    1
    81    29    79    1
    82    31    80    1
    83    32    81    1
    84    32    82    1
    85    33    83    1
    86    33    84    1
    87    36    85    1
    88    36    86    1
    89    38    87    1
    90    40    88    1
    91    40    89    1
    92    40    90    1
    93    41    91    1
    94    42    92    1
    95    43    93    1
    96    45    94    1
    97    46    95    1
    98    46    96    1
    99    46    97    1
@<TRIPOS>MOLECULE
../1EDN/PCA2_17-21.pdb
 47 48 0 0 0
SMALL
GASTEIGER

@<TRIPOS>ATOM
      1  N         -4.4680    0.3970   -1.5420 N.3    17  LEU17      -0.1231
      2  CA        -5.5730   -0.5090   -1.8150 C.3    17  LEU17       0.1693
      3  CB        -5.9860   -1.2020   -0.4580 C.3    17  LEU17       0.0284
      4  CG        -7.1280   -2.2100   -0.5390 C.3    17  LEU17       0.0019
      5  CD1       -6.7120   -3.3620   -1.4700 C.3    17  LEU17       0.0001
      6  CD2       -7.4980   -2.5610    0.9130 C.3    17  LEU17       0.0001
      7  C         -6.7000    0.2280   -2.5610 C.2    17  LEU17       0.2592
      8  O         -7.1860   -0.2780   -3.5510 O.2    17  LEU17      -0.2718
      9  N         -7.2650    1.2690   -1.9650 N.am   18  ASP18      -0.1960
     10  CA        -8.5260    1.8930   -2.2590 C.3    18  ASP18       0.1840
     11  CB        -9.6810    1.0560   -1.6740 C.3    18  ASP18       0.1450
     12  CG       -11.0010    1.6360   -2.1090 C.2    18  ASP18       0.3671
     13  OD1      -11.5960    2.3310   -1.2790 O.co2  18  ASP18      -0.2456
     14  OD2      -11.5460    1.2700   -3.1630 O.co2  18  ASP18      -0.2456
     15  C         -8.5570    3.3770   -1.7380 C.2    18  ASP18       0.2622
     16  O         -8.6960    4.2620   -2.5680 O.2    18  ASP18      -0.2715
     17  N         -8.4180    3.5730   -0.4160 N.am   19  ILE19      -0.1963
     18  CA        -8.3980    4.9040    0.1930 C.3    19  ILE19       0.1727
     19  CB        -8.4260    4.8620    1.7600 C.3    19  ILE19       0.0290
     20  CG2       -7.7310    6.0060    2.5190 C.3    19  ILE19       0.0023
     21  CG1       -9.9240    4.5740    2.2500 C.3    19  ILE19       0.0022
     22  CD1      -10.9740    5.6950    2.0110 C.3    19  ILE19       0.0001
     23  C         -7.1570    5.7010   -0.3260 C.2    19  ILE19       0.2616
     24  O         -7.3050    6.7970   -0.9200 O.2    19  ILE19      -0.2715
     25  N         -5.9900    5.0720   -0.2260 N.am   20  ILE20      -0.1963
     26  CA        -4.7520    5.3490   -0.9430 C.3    20  ILE20       0.1727
     27  CB        -3.5230    4.9310   -0.1080 C.3    20  ILE20       0.0290
     28  CG2       -2.1210    5.5060   -0.7390 C.3    20  ILE20       0.0023
     29  CG1       -3.5940    5.4760    1.3470 C.3    20  ILE20       0.0022
     30  CD1       -2.3570    5.1940    2.2260 C.3    20  ILE20       0.0001
     31  C         -4.7590    4.7050   -2.3650 C.2    20  ILE20       0.2617
     32  O         -4.2060    3.6200   -2.5900 O.2    20  ILE20      -0.2715
     33  N         -5.4060    5.3330   -3.3880 N.am   21  TRP21      -0.1938
     34  CA        -5.3950    4.7680   -4.7850 C.3    21  TRP21       0.2021
     35  CB        -6.6210    3.8650   -5.0310 C.3    21  TRP21       0.0612
     36  CG        -6.7890    3.3770   -6.4480 C.ar   21  TRP21       0.0007
     37  CD1       -7.1340    4.1960   -7.4760 C.ar   21  TRP21       0.0946
     38  NE1       -7.1740    3.4060   -8.6160 N.ar   21  TRP21      -0.2442
     39  CE2       -6.9360    2.0750   -8.3350 C.ar   21  TRP21       0.0810
     40  CZ2       -6.8300    1.0510   -9.2060 C.ar   21  TRP21       0.0191
     41  CH2       -6.3330   -0.2010   -8.7710 C.ar   21  TRP21       0.0015
     42  CZ3       -5.9560   -0.2520   -7.3640 C.ar   21  TRP21       0.0001
     43  CE3       -6.0150    0.8940   -6.5860 C.ar   21  TRP21       0.0012
     44  CD2       -6.6320    2.0560   -6.9830 C.ar   21  TRP21       0.0152
     45  C         -5.1960    5.8550   -5.8260 C.2    21  TRP21       0.3845
     46  O         -4.1840    5.6720   -6.5070 O.co2  21  TRP21      -0.2437
     47  OXT       -5.9640    6.8330   -6.0170 O.co2  21  TRP21      -0.2437
@<TRIPOS>BOND
     1    40    41   ar
     2    40    39   ar
     3    41    42   ar
     4    38    39   ar
     5    38    37   ar
     6    39    44   ar
     7    37    36   ar
     8    42    43   ar
     9    44    43   ar
    10    44    36   ar
    11    46    45   ar
    12    36    35    1
    13    47    45   ar
    14    45    34    1
    15    35    34    1
    16    34    33    1
    17     8     7    2
    18    33    31   am
    19    14    12   ar
    20    32    31    2
    21    16    15    2
    22     7     9   am
    23     7     2    1
    24    31    26    1
    25    10     9    1
    26    10    15    1
    27    10    11    1
    28    12    11    1
    29    12    13   ar
    30     2     1    1
    31     2     3    1
    32    15    17   am
    33     5     4    1
    34    26    25    1
    35    26    27    1
    36    24    23    2
    37    28    27    1
    38     4     3    1
    39     4     6    1
    40    17    18    1
    41    23    25   am
    42    23    18    1
    43    27    29    1
    44    18    19    1
    45    29    30    1
    46    19    21    1
    47    19    20    1
    48    22    21    1
