@<TRIPOS>MOLECULE
../1EDN/PCA3_17-21_NOBACKBONE.pdb
 26 23 0 0 0
SMALL
GASTEIGER

@<TRIPOS>ATOM
      1  CB        -5.7360   -1.8160   -1.1010 C.3    17  LEU17       0.0000
      2  CG        -6.9950   -2.5690   -1.5730 C.3    17  LEU17       0.0000
      3  CD1       -6.7530   -3.1800   -3.0080 C.3    17  LEU17       0.0000
      4  CD2       -7.2580   -3.7400   -0.6960 C.3    17  LEU17       0.0000
      5  CB        -9.1090    1.3410    0.3760 C.3    18  ASP18       0.1258
      6  CG       -10.1470    2.2990    0.9520 C.2    18  ASP18       0.3654
      7  OD1      -11.0720    2.5310    0.1500 O.co2  18  ASP18      -0.2456
      8  OD2      -10.1960    2.6850    2.1610 O.co2  18  ASP18      -0.2456
      9  CB        -5.3140    3.8890    3.0670 C.3    19  ILE19       0.0000
     10  CG2       -4.6600    5.0630    3.8540 C.3    19  ILE19       0.0000
     11  CG1       -6.1440    2.9790    3.9890 C.3    19  ILE19       0.0000
     12  CD1       -5.5170    2.2940    5.2130 C.3    19  ILE19       0.0000
     13  CB        -2.4460    5.7340   -1.0120 C.3    20  ILE20       0.0000
     14  CG2       -2.3030    7.0110   -0.1100 C.3    20  ILE20       0.0000
     15  CG1       -1.4300    4.6170   -0.6100 C.3    20  ILE20       0.0000
     16  CD1        0.0800    4.9990   -0.7110 C.3    20  ILE20       0.0000
     17  CB        -6.2680    3.7450   -4.8170 C.3    21  TRP21       0.0327
     18  CG        -6.5090    2.9660   -6.0890 C.ar   21  TRP21      -0.0013
     19  CD1       -7.0550    3.4090   -7.2190 C.ar   21  TRP21       0.0946
     20  NE1       -7.1560    2.4190   -8.1260 N.ar   21  TRP21      -0.2442
     21  CE2       -6.6880    1.2600   -7.6470 C.ar   21  TRP21       0.0810
     22  CZ2       -6.5320   -0.1050   -8.0600 C.ar   21  TRP21       0.0191
     23  CH2       -5.9630   -1.0770   -7.2340 C.ar   21  TRP21       0.0015
     24  CZ3       -5.4330   -0.7150   -5.9030 C.ar   21  TRP21       0.0001
     25  CE3       -5.5290    0.6400   -5.5430 C.ar   21  TRP21       0.0012
     26  CD2       -6.2440    1.5830   -6.3190 C.ar   21  TRP21       0.0152
@<TRIPOS>BOND
     1    20    21   ar
     2    20    19   ar
     3    22    21   ar
     4    22    23   ar
     5    21    26   ar
     6    23    24   ar
     7    19    18   ar
     8    26    18   ar
     9    26    25   ar
    10    18    17    1
    11    24    25   ar
    12     3     2    1
    13     2     1    1
    14     2     4    1
    15    13    15    1
    16    13    14    1
    17    16    15    1
    18     7     6   ar
    19     5     6    1
    20     6     8   ar
    21     9    10    1
    22     9    11    1
    23    11    12    1
@<TRIPOS>MOLECULE
*****
 67 70 0 0 0
SMALL
GASTEIGER

@<TRIPOS>ATOM
      1 C          -6.5932    2.3925   -8.0370 C.ar    1  LIG11       0.0483
      2 C          -6.5161    3.6262   -7.4346 C.ar    1  LIG11       0.0543
      3 C          -6.4167    3.6105   -6.0635 C.ar    1  LIG11       0.0483
      4 N          -6.3831    2.4759   -5.3338 N.ar    1  LIG11      -0.2022
      5 N          -6.5689    1.2255   -7.3560 N.ar    1  LIG11      -0.2022
      6 C          -8.9402   -4.8747   -1.1829 C.ar    1  LIG11      -0.0504
      7 C          -7.8302   -4.8871   -0.3360 C.ar    1  LIG11      -0.0583
      8 C          -6.8010   -3.9552   -0.5022 C.ar    1  LIG11      -0.0535
      9 C          -6.8542   -2.9693   -1.5040 C.ar    1  LIG11      -0.0094
     10 C          -7.9639   -2.9911   -2.3661 C.ar    1  LIG11      -0.0535
     11 C          -8.9865   -3.9349   -2.2157 C.ar    1  LIG11      -0.0583
     12 C          -5.9083    3.2684    1.6490 C.ar    1  LIG11      -0.0561
     13 C          -6.3992    2.0929    1.0683 C.ar    1  LIG11      -0.0348
     14 C          -6.6000    0.9689    1.8632 C.ar    1  LIG11       0.1086
     15 C          -6.3248    1.0125    3.2287 C.ar    1  LIG11      -0.0348
     16 C          -5.8300    2.1910    3.7982 C.ar    1  LIG11      -0.0561
     17 C          -5.0819    4.6472    3.6717 C.3     1  LIG11       0.0132
     18 C          -5.6277    3.3515    3.0265 C.ar    1  LIG11      -0.0394
     19 C          -3.5483    4.5184    3.7674 C.3     1  LIG11      -0.0537
     20 C          -5.4683    5.9450    2.8937 C.3     1  LIG11       0.0533
     21 C          -5.6480    4.8373    5.1030 C.3     1  LIG11      -0.0537
     22 O          -4.7294    6.1398    1.6900 O.3     1  LIG11      -0.3942
     23 S          -7.2496   -0.5318    1.1515 S.O2    1  LIG11       0.0735
     24 O          -7.9576   -0.1782   -0.0599 O.2     1  LIG11      -0.1499
     25 O          -7.8971   -1.2438    2.2330 O.2     1  LIG11      -0.1499
     26 N          -5.8132   -1.3715    0.7996 N.pl3   1  LIG11      -0.1988
     27 C          -5.8169   -1.9197   -1.6145 C.ar    1  LIG11       0.0847
     28 C          -5.1921   -1.5563   -2.8028 C.ar    1  LIG11       0.2276
     29 N          -4.2396   -0.6037   -2.9015 N.ar    1  LIG11      -0.2008
     30 C          -3.9068    0.0270   -1.7735 C.ar    1  LIG11       0.1219
     31 N          -4.4013   -0.2293   -0.5610 N.ar    1  LIG11      -0.2186
     32 C          -5.3403   -1.1878   -0.5287 C.ar    1  LIG11       0.1524
     33 C         -10.0630   -5.8499   -0.9979 C.3     1  LIG11      -0.0397
     34 O          -5.5095   -2.2780   -3.9392 O.3     1  LIG11      -0.4724
     35 C          -5.0132   -1.7696   -5.1816 C.3     1  LIG11       0.1252
     36 C          -6.1084   -1.0154   -5.9365 C.3     1  LIG11       0.1267
     37 O          -6.4077    0.1953   -5.2429 O.3     1  LIG11      -0.4590
     38 C          -6.4505    1.3252   -6.0203 C.ar    1  LIG11       0.3180
     39 BR         -6.5370    5.2244   -8.4178 Br      1  LIG11      -0.0472
     40 H          -6.6758    2.2911   -9.1155 H       1  LIG11       0.0843
     41 H          -6.3571    4.5267   -5.4841 H       1  LIG11       0.0843
     42 H          -7.7649   -5.6071    0.4767 H       1  LIG11       0.0620
     43 H          -5.9618   -3.9928    0.1903 H       1  LIG11       0.0624
     44 H          -8.0609   -2.2467   -3.1545 H       1  LIG11       0.0624
     45 H          -9.8338   -3.9111   -2.8974 H       1  LIG11       0.0620
     46 H          -5.7531    4.1205    0.9886 H       1  LIG11       0.0621
     47 H          -6.6138    2.0686    0.0012 H       1  LIG11       0.0637
     48 H          -6.4941    0.1425    3.8604 H       1  LIG11       0.0637
     49 H          -5.6098    2.1739    4.8620 H       1  LIG11       0.0621
     50 H          -3.2547    3.6801    4.4102 H       1  LIG11       0.0239
     51 H          -3.1029    5.4274    4.1880 H       1  LIG11       0.0239
     52 H          -3.0932    4.3431    2.7857 H       1  LIG11       0.0239
     53 H          -5.2937    6.8354    3.5090 H       1  LIG11       0.0566
     54 H          -6.5346    5.9402    2.6383 H       1  LIG11       0.0566
     55 H          -6.7439    4.8158    5.1024 H       1  LIG11       0.0239
     56 H          -5.3324    5.7968    5.5294 H       1  LIG11       0.0239
     57 H          -5.2953    4.0685    5.7992 H       1  LIG11       0.0239
     58 H          -3.8181    6.3719    1.9359 H       1  LIG11       0.2094
     59 H          -5.0737   -1.0424    1.4215 H       1  LIG11       0.1753
     60 H          -3.1623    0.8119   -1.8494 H       1  LIG11       0.1049
     61 H          -9.9827   -6.3749   -0.0402 H       1  LIG11       0.0278
     62 H         -10.0543   -6.5930   -1.8003 H       1  LIG11       0.0278
     63 H         -11.0248   -5.3253   -1.0022 H       1  LIG11       0.0278
     64 H          -4.7267   -2.6454   -5.7739 H       1  LIG11       0.0731
     65 H          -4.1105   -1.1564   -5.0867 H       1  LIG11       0.0731
     66 H          -7.0266   -1.6132   -5.9670 H       1  LIG11       0.0732
     67 H          -5.7555   -0.8663   -6.9631 H       1  LIG11       0.0732
@<TRIPOS>BOND
     1     1     2   ar
     2     2     3   ar
     3     2    39    1
     4     3     4   ar
     5     4    38   ar
     6     5     1   ar
     7     6     7   ar
     8     6    33    1
     9     7     8   ar
    10     8     9   ar
    11     9    10   ar
    12    10    11   ar
    13    11     6   ar
    14    12    13   ar
    15    13    14   ar
    16    14    15   ar
    17    15    16   ar
    18    16    18   ar
    19    17    18    1
    20    17    21    1
    21    17    20    1
    22    17    19    1
    23    18    12   ar
    24    20    22    1
    25    23    26    1
    26    23    25    2
    27    23    24    2
    28    23    14    1
    29    26    32    1
    30    27    28   ar
    31    27     9    1
    32    28    29   ar
    33    29    30   ar
    34    30    31   ar
    35    31    32   ar
    36    32    27   ar
    37    34    35    1
    38    34    28    1
    39    35    36    1
    40    36    37    1
    41    37    38    1
    42    38     5   ar
    43     1    40    1
    44     3    41    1
    45     7    42    1
    46     8    43    1
    47    10    44    1
    48    11    45    1
    49    12    46    1
    50    13    47    1
    51    15    48    1
    52    16    49    1
    53    19    50    1
    54    19    51    1
    55    19    52    1
    56    20    53    1
    57    20    54    1
    58    21    55    1
    59    21    56    1
    60    21    57    1
    61    22    58    1
    62    26    59    1
    63    30    60    1
    64    33    61    1
    65    33    62    1
    66    33    63    1
    67    35    64    1
    68    35    65    1
    69    36    66    1
    70    36    67    1
@<TRIPOS>MOLECULE
../1EDN/PCA3_17-21.pdb
 47 48 0 0 0
SMALL
GASTEIGER

@<TRIPOS>ATOM
      1  N         -4.2370    0.0490   -1.5930 N.3    17  LEU17      -0.1231
      2  CA        -5.5250   -0.5610   -1.9200 C.3    17  LEU17       0.1693
      3  CB        -5.7360   -1.8160   -1.1010 C.3    17  LEU17       0.0284
      4  CG        -6.9950   -2.5690   -1.5730 C.3    17  LEU17       0.0019
      5  CD1       -6.7530   -3.1800   -3.0080 C.3    17  LEU17       0.0001
      6  CD2       -7.2580   -3.7400   -0.6960 C.3    17  LEU17       0.0001
      7  C         -6.6810    0.4320   -1.9250 C.2    17  LEU17       0.2592
      8  O         -7.3270    0.6200   -2.9560 O.2    17  LEU17      -0.2718
      9  N         -6.9500    1.1080   -0.7900 N.am   18  ASP18      -0.1960
     10  CA        -8.0880    2.0070   -0.5710 C.3    18  ASP18       0.1840
     11  CB        -9.1090    1.3410    0.3760 C.3    18  ASP18       0.1450
     12  CG       -10.1470    2.2990    0.9520 C.2    18  ASP18       0.3671
     13  OD1      -11.0720    2.5310    0.1500 O.co2  18  ASP18      -0.2456
     14  OD2      -10.1960    2.6850    2.1610 O.co2  18  ASP18      -0.2456
     15  C         -7.6280    3.3500    0.0060 C.2    18  ASP18       0.2622
     16  O         -7.9950    4.4650   -0.3580 O.2    18  ASP18      -0.2715
     17  N         -6.8140    3.2050    1.0390 N.am   19  ILE19      -0.1963
     18  CA        -6.1800    4.3790    1.8160 C.3    19  ILE19       0.1727
     19  CB        -5.3140    3.8890    3.0670 C.3    19  ILE19       0.0290
     20  CG2       -4.6600    5.0630    3.8540 C.3    19  ILE19       0.0023
     21  CG1       -6.1440    2.9790    3.9890 C.3    19  ILE19       0.0022
     22  CD1       -5.5170    2.2940    5.2130 C.3    19  ILE19       0.0001
     23  C         -5.2670    5.2520    0.8640 C.2    19  ILE19       0.2616
     24  O         -5.3920    6.4650    0.9090 O.2    19  ILE19      -0.2715
     25  N         -4.4890    4.6060    0.0020 N.am   20  ILE20      -0.1963
     26  CA        -3.9690    5.2910   -1.1850 C.3    20  ILE20       0.1727
     27  CB        -2.4460    5.7340   -1.0120 C.3    20  ILE20       0.0290
     28  CG2       -2.3030    7.0110   -0.1100 C.3    20  ILE20       0.0023
     29  CG1       -1.4300    4.6170   -0.6100 C.3    20  ILE20       0.0022
     30  CD1        0.0800    4.9990   -0.7110 C.3    20  ILE20       0.0001
     31  C         -4.1660    4.3690   -2.4130 C.2    20  ILE20       0.2617
     32  O         -3.9200    3.1710   -2.5010 O.2    20  ILE20      -0.2715
     33  N         -4.6410    5.0460   -3.5090 N.am   21  TRP21      -0.1938
     34  CA        -4.8980    4.4430   -4.8120 C.3    21  TRP21       0.2021
     35  CB        -6.2680    3.7450   -4.8170 C.3    21  TRP21       0.0612
     36  CG        -6.5090    2.9660   -6.0890 C.ar   21  TRP21       0.0007
     37  CD1       -7.0550    3.4090   -7.2190 C.ar   21  TRP21       0.0946
     38  NE1       -7.1560    2.4190   -8.1260 N.ar   21  TRP21      -0.2442
     39  CE2       -6.6880    1.2600   -7.6470 C.ar   21  TRP21       0.0810
     40  CZ2       -6.5320   -0.1050   -8.0600 C.ar   21  TRP21       0.0191
     41  CH2       -5.9630   -1.0770   -7.2340 C.ar   21  TRP21       0.0015
     42  CZ3       -5.4330   -0.7150   -5.9030 C.ar   21  TRP21       0.0001
     43  CE3       -5.5290    0.6400   -5.5430 C.ar   21  TRP21       0.0012
     44  CD2       -6.2440    1.5830   -6.3190 C.ar   21  TRP21       0.0152
     45  C         -4.7460    5.5030   -5.9410 C.2    21  TRP21       0.3845
     46  O         -5.6740    6.3580   -6.0770 O.co2  21  TRP21      -0.2437
     47  OXT       -3.7150    5.4030   -6.6310 O.co2  21  TRP21      -0.2437
@<TRIPOS>BOND
     1    38    39   ar
     2    38    37   ar
     3    40    39   ar
     4    40    41   ar
     5    39    44   ar
     6    41    42   ar
     7    37    36   ar
     8    47    45   ar
     9    44    36   ar
    10    44    43   ar
    11    36    35    1
    12    46    45   ar
    13    45    34    1
    14    42    43   ar
    15    35    34    1
    16    34    33    1
    17    33    31   am
    18     5     4    1
    19     8     7    2
    20    32    31    2
    21    31    26    1
    22     7     2    1
    23     7     9   am
    24     2     1    1
    25     2     3    1
    26     4     3    1
    27     4     6    1
    28    26    27    1
    29    26    25    1
    30    27    29    1
    31    27    28    1
    32     9    10    1
    33    30    29    1
    34    10    15    1
    35    10    11    1
    36    16    15    2
    37    25    23   am
    38    15    17   am
    39    13    12   ar
    40    11    12    1
    41    23    24    2
    42    23    18    1
    43    12    14   ar
    44    17    18    1
    45    18    19    1
    46    19    20    1
    47    19    21    1
    48    21    22    1
