@<TRIPOS>MOLECULE
../1EDN/PCA3_17-21_NOBACKBONE.pdb
 26 23 0 0 0
SMALL
GASTEIGER

@<TRIPOS>ATOM
      1  CB        -5.7360   -1.8160   -1.1010 C.3    17  LEU17       0.0000
      2  CG        -6.9950   -2.5690   -1.5730 C.3    17  LEU17       0.0000
      3  CD1       -6.7530   -3.1800   -3.0080 C.3    17  LEU17       0.0000
      4  CD2       -7.2580   -3.7400   -0.6960 C.3    17  LEU17       0.0000
      5  CB        -9.1090    1.3410    0.3760 C.3    18  ASP18       0.1258
      6  CG       -10.1470    2.2990    0.9520 C.2    18  ASP18       0.3654
      7  OD1      -11.0720    2.5310    0.1500 O.co2  18  ASP18      -0.2456
      8  OD2      -10.1960    2.6850    2.1610 O.co2  18  ASP18      -0.2456
      9  CB        -5.3140    3.8890    3.0670 C.3    19  ILE19       0.0000
     10  CG2       -4.6600    5.0630    3.8540 C.3    19  ILE19       0.0000
     11  CG1       -6.1440    2.9790    3.9890 C.3    19  ILE19       0.0000
     12  CD1       -5.5170    2.2940    5.2130 C.3    19  ILE19       0.0000
     13  CB        -2.4460    5.7340   -1.0120 C.3    20  ILE20       0.0000
     14  CG2       -2.3030    7.0110   -0.1100 C.3    20  ILE20       0.0000
     15  CG1       -1.4300    4.6170   -0.6100 C.3    20  ILE20       0.0000
     16  CD1        0.0800    4.9990   -0.7110 C.3    20  ILE20       0.0000
     17  CB        -6.2680    3.7450   -4.8170 C.3    21  TRP21       0.0327
     18  CG        -6.5090    2.9660   -6.0890 C.ar   21  TRP21      -0.0013
     19  CD1       -7.0550    3.4090   -7.2190 C.ar   21  TRP21       0.0946
     20  NE1       -7.1560    2.4190   -8.1260 N.ar   21  TRP21      -0.2442
     21  CE2       -6.6880    1.2600   -7.6470 C.ar   21  TRP21       0.0810
     22  CZ2       -6.5320   -0.1050   -8.0600 C.ar   21  TRP21       0.0191
     23  CH2       -5.9630   -1.0770   -7.2340 C.ar   21  TRP21       0.0015
     24  CZ3       -5.4330   -0.7150   -5.9030 C.ar   21  TRP21       0.0001
     25  CE3       -5.5290    0.6400   -5.5430 C.ar   21  TRP21       0.0012
     26  CD2       -6.2440    1.5830   -6.3190 C.ar   21  TRP21       0.0152
@<TRIPOS>BOND
     1    20    21   ar
     2    20    19   ar
     3    22    21   ar
     4    22    23   ar
     5    21    26   ar
     6    23    24   ar
     7    19    18   ar
     8    26    18   ar
     9    26    25   ar
    10    18    17    1
    11    24    25   ar
    12     3     2    1
    13     2     1    1
    14     2     4    1
    15    13    15    1
    16    13    14    1
    17    16    15    1
    18     7     6   ar
    19     5     6    1
    20     6     8   ar
    21     9    10    1
    22     9    11    1
    23    11    12    1
@<TRIPOS>MOLECULE
16004692
 52 54 0 0 0
SMALL
GASTEIGER

@<TRIPOS>ATOM
      1 BR          0.6066    4.8055   -0.9558 Br      1  LIG11      -0.0503
      2 BR         -5.8235   -1.6875   -8.5084 Br      1  LIG11      -0.0472
      3 S          -5.7908    5.5812    3.2312 S.O2    1  LIG11       0.1104
      4 O          -5.8824    3.9569   -2.4121 O.3     1  LIG11      -0.4724
      5 O          -7.1952    5.5065    3.5404 O.2     1  LIG11      -0.1381
      6 O          -4.8607    6.1999    4.1466 O.2     1  LIG11      -0.1381
      7 O          -6.8118    3.5719   -5.9189 O.3     1  LIG11      -0.4590
      8 N          -5.2679    4.0158    2.8960 N.3     1  LIG11      -0.1771
      9 N          -5.5796    6.3558    1.7582 N.pl3   1  LIG11      -0.1889
     10 N          -7.5773    5.9669    0.7050 N.ar    1  LIG11      -0.2186
     11 N          -7.7838    4.6709   -1.2628 N.ar    1  LIG11      -0.2008
     12 N          -6.1297    1.3350   -5.6996 N.ar    1  LIG11      -0.2022
     13 N          -6.8207    2.2591   -7.7919 N.ar    1  LIG11      -0.2022
     14 C          -5.4570    3.0399    4.0041 C.3     1  LIG11       0.0185
     15 C          -5.5662    5.1207   -0.3713 C.ar    1  LIG11       0.0848
     16 C          -6.2501    5.7885    0.6412 C.ar    1  LIG11       0.1532
     17 C          -4.4667    3.2274    5.1423 C.3     1  LIG11      -0.0416
     18 C          -4.0856    5.0281   -0.4691 C.ar    1  LIG11      -0.0094
     19 C          -6.4386    4.5933   -1.3227 C.ar    1  LIG11       0.2276
     20 C          -4.6666    2.1613    6.2097 C.3     1  LIG11      -0.0641
     21 C          -3.4402    3.8410   -0.8699 C.ar    1  LIG11      -0.0527
     22 C          -3.2604    6.1384   -0.2010 C.ar    1  LIG11      -0.0527
     23 C          -6.7676    3.6331   -3.4856 C.3     1  LIG11       0.1252
     24 C          -2.0495    3.7737   -1.0232 C.ar    1  LIG11      -0.0472
     25 C          -1.8675    6.0708   -0.3262 C.ar    1  LIG11      -0.0472
     26 C          -8.2898    5.3727   -0.2496 C.ar    1  LIG11       0.1219
     27 C          -5.9966    3.8462   -4.7843 C.3     1  LIG11       0.1267
     28 C          -1.2691    4.8902   -0.7476 C.ar    1  LIG11       0.0179
     29 C          -6.5597    2.3430   -6.4793 C.ar    1  LIG11       0.3180
     30 C          -5.9217    0.1568   -6.3273 C.ar    1  LIG11       0.0483
     31 C          -6.5939    1.0593   -8.3654 C.ar    1  LIG11       0.0483
     32 C          -6.1361   -0.0369   -7.6727 C.ar    1  LIG11       0.0543
     33 H          -5.8003    3.6747    2.0974 H       1  LIG11       0.1493
     34 H          -5.9381    7.2990    1.9054 H       1  LIG11       0.1763
     35 H          -6.4929    3.0790    4.3607 H       1  LIG11       0.0442
     36 H          -5.3256    2.0415    3.5682 H       1  LIG11       0.0442
     37 H          -3.4404    3.1822    4.7610 H       1  LIG11       0.0275
     38 H          -4.5932    4.2064    5.6131 H       1  LIG11       0.0275
     39 H          -4.5160    1.1583    5.7981 H       1  LIG11       0.0230
     40 H          -3.9565    2.3055    7.0294 H       1  LIG11       0.0230
     41 H          -5.6787    2.2122    6.6257 H       1  LIG11       0.0230
     42 H          -4.0159    2.9428   -1.0867 H       1  LIG11       0.0624
     43 H          -3.6908    7.0891    0.1077 H       1  LIG11       0.0624
     44 H          -7.0838    2.5892   -3.3812 H       1  LIG11       0.0731
     45 H          -7.6711    4.2530   -3.5244 H       1  LIG11       0.0731
     46 H          -1.5920    2.8474   -1.3605 H       1  LIG11       0.0629
     47 H          -1.2671    6.9480   -0.0984 H       1  LIG11       0.0629
     48 H          -9.3691    5.4661   -0.1959 H       1  LIG11       0.1049
     49 H          -5.0380    3.3091   -4.7843 H       1  LIG11       0.0732
     50 H          -5.7168    4.9057   -4.8448 H       1  LIG11       0.0732
     51 H          -5.5649   -0.6453   -5.6878 H       1  LIG11       0.0843
     52 H          -6.7996    1.0178   -9.4309 H       1  LIG11       0.0843
@<TRIPOS>BOND
     1     1    28    1
     2     2    32    1
     3     3     5    2
     4     3     6    2
     5     3     8    1
     6     3     9    1
     7     4    19    1
     8     4    23    1
     9     7    27    1
    10     7    29    1
    11     8    14    1
    12     9    16    1
    13    10    16   ar
    14    10    26   ar
    15    11    19   ar
    16    11    26   ar
    17    12    29   ar
    18    12    30   ar
    19    13    29   ar
    20    13    31   ar
    21    14    17    1
    22    15    16   ar
    23    15    18    1
    24    15    19   ar
    25    17    20    1
    26    18    21   ar
    27    18    22   ar
    28    21    24   ar
    29    22    25   ar
    30    23    27    1
    31    24    28   ar
    32    25    28   ar
    33    30    32   ar
    34    31    32   ar
    35     8    33    1
    36     9    34    1
    37    14    35    1
    38    14    36    1
    39    17    37    1
    40    17    38    1
    41    20    39    1
    42    20    40    1
    43    20    41    1
    44    21    42    1
    45    22    43    1
    46    23    44    1
    47    23    45    1
    48    24    46    1
    49    25    47    1
    50    26    48    1
    51    27    49    1
    52    27    50    1
    53    30    51    1
    54    31    52    1
@<TRIPOS>MOLECULE
../1EDN/PCA3_17-21.pdb
 47 48 0 0 0
SMALL
GASTEIGER

@<TRIPOS>ATOM
      1  N         -4.2370    0.0490   -1.5930 N.3    17  LEU17      -0.1231
      2  CA        -5.5250   -0.5610   -1.9200 C.3    17  LEU17       0.1693
      3  CB        -5.7360   -1.8160   -1.1010 C.3    17  LEU17       0.0284
      4  CG        -6.9950   -2.5690   -1.5730 C.3    17  LEU17       0.0019
      5  CD1       -6.7530   -3.1800   -3.0080 C.3    17  LEU17       0.0001
      6  CD2       -7.2580   -3.7400   -0.6960 C.3    17  LEU17       0.0001
      7  C         -6.6810    0.4320   -1.9250 C.2    17  LEU17       0.2592
      8  O         -7.3270    0.6200   -2.9560 O.2    17  LEU17      -0.2718
      9  N         -6.9500    1.1080   -0.7900 N.am   18  ASP18      -0.1960
     10  CA        -8.0880    2.0070   -0.5710 C.3    18  ASP18       0.1840
     11  CB        -9.1090    1.3410    0.3760 C.3    18  ASP18       0.1450
     12  CG       -10.1470    2.2990    0.9520 C.2    18  ASP18       0.3671
     13  OD1      -11.0720    2.5310    0.1500 O.co2  18  ASP18      -0.2456
     14  OD2      -10.1960    2.6850    2.1610 O.co2  18  ASP18      -0.2456
     15  C         -7.6280    3.3500    0.0060 C.2    18  ASP18       0.2622
     16  O         -7.9950    4.4650   -0.3580 O.2    18  ASP18      -0.2715
     17  N         -6.8140    3.2050    1.0390 N.am   19  ILE19      -0.1963
     18  CA        -6.1800    4.3790    1.8160 C.3    19  ILE19       0.1727
     19  CB        -5.3140    3.8890    3.0670 C.3    19  ILE19       0.0290
     20  CG2       -4.6600    5.0630    3.8540 C.3    19  ILE19       0.0023
     21  CG1       -6.1440    2.9790    3.9890 C.3    19  ILE19       0.0022
     22  CD1       -5.5170    2.2940    5.2130 C.3    19  ILE19       0.0001
     23  C         -5.2670    5.2520    0.8640 C.2    19  ILE19       0.2616
     24  O         -5.3920    6.4650    0.9090 O.2    19  ILE19      -0.2715
     25  N         -4.4890    4.6060    0.0020 N.am   20  ILE20      -0.1963
     26  CA        -3.9690    5.2910   -1.1850 C.3    20  ILE20       0.1727
     27  CB        -2.4460    5.7340   -1.0120 C.3    20  ILE20       0.0290
     28  CG2       -2.3030    7.0110   -0.1100 C.3    20  ILE20       0.0023
     29  CG1       -1.4300    4.6170   -0.6100 C.3    20  ILE20       0.0022
     30  CD1        0.0800    4.9990   -0.7110 C.3    20  ILE20       0.0001
     31  C         -4.1660    4.3690   -2.4130 C.2    20  ILE20       0.2617
     32  O         -3.9200    3.1710   -2.5010 O.2    20  ILE20      -0.2715
     33  N         -4.6410    5.0460   -3.5090 N.am   21  TRP21      -0.1938
     34  CA        -4.8980    4.4430   -4.8120 C.3    21  TRP21       0.2021
     35  CB        -6.2680    3.7450   -4.8170 C.3    21  TRP21       0.0612
     36  CG        -6.5090    2.9660   -6.0890 C.ar   21  TRP21       0.0007
     37  CD1       -7.0550    3.4090   -7.2190 C.ar   21  TRP21       0.0946
     38  NE1       -7.1560    2.4190   -8.1260 N.ar   21  TRP21      -0.2442
     39  CE2       -6.6880    1.2600   -7.6470 C.ar   21  TRP21       0.0810
     40  CZ2       -6.5320   -0.1050   -8.0600 C.ar   21  TRP21       0.0191
     41  CH2       -5.9630   -1.0770   -7.2340 C.ar   21  TRP21       0.0015
     42  CZ3       -5.4330   -0.7150   -5.9030 C.ar   21  TRP21       0.0001
     43  CE3       -5.5290    0.6400   -5.5430 C.ar   21  TRP21       0.0012
     44  CD2       -6.2440    1.5830   -6.3190 C.ar   21  TRP21       0.0152
     45  C         -4.7460    5.5030   -5.9410 C.2    21  TRP21       0.3845
     46  O         -5.6740    6.3580   -6.0770 O.co2  21  TRP21      -0.2437
     47  OXT       -3.7150    5.4030   -6.6310 O.co2  21  TRP21      -0.2437
@<TRIPOS>BOND
     1    38    39   ar
     2    38    37   ar
     3    40    39   ar
     4    40    41   ar
     5    39    44   ar
     6    41    42   ar
     7    37    36   ar
     8    47    45   ar
     9    44    36   ar
    10    44    43   ar
    11    36    35    1
    12    46    45   ar
    13    45    34    1
    14    42    43   ar
    15    35    34    1
    16    34    33    1
    17    33    31   am
    18     5     4    1
    19     8     7    2
    20    32    31    2
    21    31    26    1
    22     7     2    1
    23     7     9   am
    24     2     1    1
    25     2     3    1
    26     4     3    1
    27     4     6    1
    28    26    27    1
    29    26    25    1
    30    27    29    1
    31    27    28    1
    32     9    10    1
    33    30    29    1
    34    10    15    1
    35    10    11    1
    36    16    15    2
    37    25    23   am
    38    15    17   am
    39    13    12   ar
    40    11    12    1
    41    23    24    2
    42    23    18    1
    43    12    14   ar
    44    17    18    1
    45    18    19    1
    46    19    20    1
    47    19    21    1
    48    21    22    1
