@<TRIPOS>MOLECULE
../1EDN/PCA3_17-21_NOBACKBONE.pdb
 26 23 0 0 0
SMALL
GASTEIGER

@<TRIPOS>ATOM
      1  CB        -5.7360   -1.8160   -1.1010 C.3    17  LEU17       0.0000
      2  CG        -6.9950   -2.5690   -1.5730 C.3    17  LEU17       0.0000
      3  CD1       -6.7530   -3.1800   -3.0080 C.3    17  LEU17       0.0000
      4  CD2       -7.2580   -3.7400   -0.6960 C.3    17  LEU17       0.0000
      5  CB        -9.1090    1.3410    0.3760 C.3    18  ASP18       0.1258
      6  CG       -10.1470    2.2990    0.9520 C.2    18  ASP18       0.3654
      7  OD1      -11.0720    2.5310    0.1500 O.co2  18  ASP18      -0.2456
      8  OD2      -10.1960    2.6850    2.1610 O.co2  18  ASP18      -0.2456
      9  CB        -5.3140    3.8890    3.0670 C.3    19  ILE19       0.0000
     10  CG2       -4.6600    5.0630    3.8540 C.3    19  ILE19       0.0000
     11  CG1       -6.1440    2.9790    3.9890 C.3    19  ILE19       0.0000
     12  CD1       -5.5170    2.2940    5.2130 C.3    19  ILE19       0.0000
     13  CB        -2.4460    5.7340   -1.0120 C.3    20  ILE20       0.0000
     14  CG2       -2.3030    7.0110   -0.1100 C.3    20  ILE20       0.0000
     15  CG1       -1.4300    4.6170   -0.6100 C.3    20  ILE20       0.0000
     16  CD1        0.0800    4.9990   -0.7110 C.3    20  ILE20       0.0000
     17  CB        -6.2680    3.7450   -4.8170 C.3    21  TRP21       0.0327
     18  CG        -6.5090    2.9660   -6.0890 C.ar   21  TRP21      -0.0013
     19  CD1       -7.0550    3.4090   -7.2190 C.ar   21  TRP21       0.0946
     20  NE1       -7.1560    2.4190   -8.1260 N.ar   21  TRP21      -0.2442
     21  CE2       -6.6880    1.2600   -7.6470 C.ar   21  TRP21       0.0810
     22  CZ2       -6.5320   -0.1050   -8.0600 C.ar   21  TRP21       0.0191
     23  CH2       -5.9630   -1.0770   -7.2340 C.ar   21  TRP21       0.0015
     24  CZ3       -5.4330   -0.7150   -5.9030 C.ar   21  TRP21       0.0001
     25  CE3       -5.5290    0.6400   -5.5430 C.ar   21  TRP21       0.0012
     26  CD2       -6.2440    1.5830   -6.3190 C.ar   21  TRP21       0.0152
@<TRIPOS>BOND
     1    20    21   ar
     2    20    19   ar
     3    22    21   ar
     4    22    23   ar
     5    21    26   ar
     6    23    24   ar
     7    19    18   ar
     8    26    18   ar
     9    26    25   ar
    10    18    17    1
    11    24    25   ar
    12     3     2    1
    13     2     1    1
    14     2     4    1
    15    13    15    1
    16    13    14    1
    17    16    15    1
    18     7     6   ar
    19     5     6    1
    20     6     8   ar
    21     9    10    1
    22     9    11    1
    23    11    12    1
@<TRIPOS>MOLECULE
16219006
 85 88 0 0 0
SMALL
GASTEIGER

@<TRIPOS>ATOM
      1 O          -7.1902   -0.7400   -7.6379 O.2     1  PRO11      -0.2738
      2 O          -5.0085    2.3662   -5.6164 O.2     5  ASP55      -0.2735
      3 O          -4.8571   -0.1606   -3.5684 O.2     2  VAL22      -0.2738
      4 O          -9.3841    3.9635   -4.1323 O.2     4  TRP44      -0.2738
      5 O          -9.1927   -0.1170   -3.3632 O.2     3  LEU33      -0.2738
      6 OD1        -5.6185    5.6273   -6.8878 O.co2   5  ASP55      -0.5497
      7 OD2        -4.2732    6.7702   -5.4444 O.co2   5  ASP55      -0.5497
      8 N          -6.8180    2.4616   -6.9769 N.am    1  PRO11      -0.2884
      9 N          -5.2986   -0.2013   -6.4629 N.am    2  VAL22      -0.3022
     10 N          -7.1934    3.3338   -3.8558 N.am    5  ASP55      -0.3021
     11 N          -6.7247   -1.4714   -3.6150 N.am    3  LEU33      -0.3025
     12 N          -7.9734    1.3448   -2.0850 N.am    4  TRP44      -0.3022
     13 NE1       -10.4187    1.7029    1.7696 N.ar    4  TRP44      -0.3604
     14 CA         -6.2583    1.5083   -7.9336 C.3     1  PRO11       0.1023
     15 CB         -7.1247    1.6715   -9.1845 C.3     1  PRO11      -0.0243
     16 CG         -8.4540    2.1775   -8.6370 C.3     1  PRO11      -0.0350
     17 CD         -8.0253    3.0821   -7.4937 C.3     1  PRO11       0.0156
     18 C          -6.3173    0.0774   -7.3560 C.2     1  PRO11       0.2342
     19 C          -6.0558    2.9479   -5.9331 C.2     5  ASP55       0.2369
     20 CA         -5.3187   -1.3927   -5.6318 C.3     2  VAL22       0.1017
     21 CA         -6.6637    4.0497   -5.0309 C.3     5  ASP55       0.1047
     22 CB         -4.0341   -2.2438   -5.7514 C.3     2  VAL22      -0.0197
     23 CA         -7.1803   -0.9749   -2.3239 C.3     3  LEU33       0.0996
     24 C          -5.5827   -0.9420   -4.1811 C.2     2  VAL22       0.2342
     25 CB         -5.6022    5.0409   -4.5847 C.3     5  ASP55       0.0138
     26 CA         -8.8912    2.4707   -2.2970 C.3     4  TRP44       0.1034
     27 CB         -7.8389   -2.0760   -1.4833 C.3     3  LEU33      -0.0236
     28 CG         -6.8434   -3.0735   -0.8523 C.3     3  LEU33      -0.0446
     29 C          -8.5377    3.2788   -3.5602 C.2     4  TRP44       0.2343
     30 CB         -8.8919    3.4391   -1.1027 C.3     4  TRP44       0.0013
     31 C          -8.2217    0.1136   -2.6442 C.2     3  LEU33       0.2340
     32 CG1        -3.9656   -2.9185   -7.1270 C.3     2  VAL22      -0.0605
     33 CG2        -2.7359   -1.4712   -5.5003 C.3     2  VAL22      -0.0605
     34 CG         -9.2643    2.7801    0.1950 C.ar    4  TRP44      -0.0201
     35 CG         -5.1195    5.8851   -5.7582 C.2     5  ASP55       0.0440
     36 CD1        -6.1547   -3.9720   -1.8824 C.3     3  LEU33      -0.0626
     37 CD2        -7.5737   -3.9485    0.1710 C.3     3  LEU33      -0.0626
     38 CD2        -8.4297    2.6145    1.3476 C.ar    4  TRP44       0.0029
     39 CD1       -10.4865    2.2133    0.5026 C.ar    4  TRP44       0.0060
     40 CE2        -9.1759    1.9335    2.3105 C.ar    4  TRP44       0.0467
     41 CE3        -7.1048    2.9814    1.6634 C.ar    4  TRP44      -0.0523
     42 CZ2        -8.6640    1.5966    3.5696 C.ar    4  TRP44      -0.0378
     43 CZ3        -6.5786    2.6563    2.9192 C.ar    4  TRP44      -0.0611
     44 CH2        -7.3487    1.9723    3.8562 C.ar    4  TRP44      -0.0598
     45 H          -4.8286    0.6246   -6.0727 H       2  VAL22       0.1495
     46 H          -6.5849    2.6197   -3.4742 H       5  ASP55       0.1495
     47 H          -7.4615   -1.7415   -4.2621 H       3  LEU33       0.1495
     48 H          -7.1053    1.5112   -1.5901 H       4  TRP44       0.1495
     49 HE1       -11.1718    1.2271    2.2457 H       4  TRP44       0.1653
     50 HA         -5.2124    1.7535   -8.1543 H       1  PRO11       0.0597
     51 HB1        -6.6874    2.4403   -9.8343 H       1  PRO11       0.0288
     52 HB2        -7.2351    0.7569   -9.7735 H       1  PRO11       0.0288
     53 HG1        -9.0518    2.7022   -9.3870 H       1  PRO11       0.0281
     54 HG2        -9.0452    1.3376   -8.2531 H       1  PRO11       0.0281
     55 HD1        -8.7906    3.1563   -6.7175 H       1  PRO11       0.0465
     56 HD2        -7.7741    4.0846   -7.8558 H       1  PRO11       0.0465
     57 HA         -6.1600   -2.0257   -5.9381 H       2  VAL22       0.0597
     58 HA         -7.4807    4.5761   -5.5290 H       5  ASP55       0.0598
     59 HB         -4.0890   -3.0425   -4.9990 H       2  VAL22       0.0318
     60 HA         -6.3476   -0.5345   -1.7650 H       3  LEU33       0.0594
     61 HB1        -6.0132    5.7134   -3.8216 H       5  ASP55       0.0348
     62 HB2        -4.7388    4.5320   -4.1387 H       5  ASP55       0.0348
     63 HA         -9.8978    2.0623   -2.4531 H       4  TRP44       0.0598
     64 HB1        -8.4017   -1.5929   -0.6723 H       3  LEU33       0.0290
     65 HB2        -8.5797   -2.6211   -2.0841 H       3  LEU33       0.0290
     66 HG         -6.0697   -2.5109   -0.3161 H       3  LEU33       0.0296
     67 HB1        -7.9053    3.9103   -1.0075 H       4  TRP44       0.0337
     68 HB2        -9.5978    4.2593   -1.2913 H       4  TRP44       0.0337
     69 HG11       -3.8634   -2.1818   -7.9310 H       2  VAL22       0.0233
     70 HG12       -3.1083   -3.5980   -7.1835 H       2  VAL22       0.0233
     71 HG13       -4.8679   -3.5087   -7.3188 H       2  VAL22       0.0233
     72 HG21       -2.6166   -0.6375   -6.1993 H       2  VAL22       0.0233
     73 HG22       -2.6948   -1.0756   -4.4819 H       2  VAL22       0.0233
     74 HG23       -1.8691   -2.1309   -5.6213 H       2  VAL22       0.0233
     75 HD11       -6.8830   -4.4433   -2.5505 H       3  LEU33       0.0232
     76 HD12       -5.4412   -3.4090   -2.4898 H       3  LEU33       0.0232
     77 HD13       -5.5863   -4.7673   -1.3897 H       3  LEU33       0.0232
     78 HD21       -8.3670   -4.5361   -0.3030 H       3  LEU33       0.0232
     79 HD22       -6.8794   -4.6428    0.6558 H       3  LEU33       0.0232
     80 HD23       -8.0272   -3.3332    0.9556 H       3  LEU33       0.0232
     81 HD1       -11.3941    2.1228   -0.0801 H       4  TRP44       0.0810
     82 HE3        -6.4941    3.5225    0.9461 H       4  TRP44       0.0624
     83 HZ2        -9.2633    1.0674    4.3027 H       4  TRP44       0.0638
     84 HZ3        -5.5594    2.9462    3.1623 H       4  TRP44       0.0618
     85 HH2        -6.9222    1.7307    4.8268 H       4  TRP44       0.0618
@<TRIPOS>BOND
     1     1    18    2
     2     2    19    2
     3     3    24    2
     4     4    29    2
     5     5    31    2
     6     6    35   ar
     7     7    35   ar
     8     8    14    1
     9     8    17    1
    10     8    19   am
    11     9    18   am
    12     9    20    1
    13    10    21    1
    14    10    29   am
    15    11    23    1
    16    11    24   am
    17    12    26    1
    18    12    31   am
    19    13    39   ar
    20    13    40   ar
    21    14    15    1
    22    14    18    1
    23    15    16    1
    24    16    17    1
    25    19    21    1
    26    20    22    1
    27    20    24    1
    28    21    25    1
    29    22    32    1
    30    22    33    1
    31    23    27    1
    32    23    31    1
    33    25    35    1
    34    26    29    1
    35    26    30    1
    36    27    28    1
    37    28    36    1
    38    28    37    1
    39    30    34    1
    40    34    38   ar
    41    34    39   ar
    42    38    40   ar
    43    38    41   ar
    44    40    42   ar
    45    41    43   ar
    46    42    44   ar
    47    43    44   ar
    48     9    45    1
    49    10    46    1
    50    11    47    1
    51    12    48    1
    52    13    49    1
    53    14    50    1
    54    15    51    1
    55    15    52    1
    56    16    53    1
    57    16    54    1
    58    17    55    1
    59    17    56    1
    60    20    57    1
    61    21    58    1
    62    22    59    1
    63    23    60    1
    64    25    61    1
    65    25    62    1
    66    26    63    1
    67    27    64    1
    68    27    65    1
    69    28    66    1
    70    30    67    1
    71    30    68    1
    72    32    69    1
    73    32    70    1
    74    32    71    1
    75    33    72    1
    76    33    73    1
    77    33    74    1
    78    36    75    1
    79    36    76    1
    80    36    77    1
    81    37    78    1
    82    37    79    1
    83    37    80    1
    84    39    81    1
    85    41    82    1
    86    42    83    1
    87    43    84    1
    88    44    85    1
@<TRIPOS>MOLECULE
../1EDN/PCA3_17-21.pdb
 47 48 0 0 0
SMALL
GASTEIGER

@<TRIPOS>ATOM
      1  N         -4.2370    0.0490   -1.5930 N.3    17  LEU17      -0.1231
      2  CA        -5.5250   -0.5610   -1.9200 C.3    17  LEU17       0.1693
      3  CB        -5.7360   -1.8160   -1.1010 C.3    17  LEU17       0.0284
      4  CG        -6.9950   -2.5690   -1.5730 C.3    17  LEU17       0.0019
      5  CD1       -6.7530   -3.1800   -3.0080 C.3    17  LEU17       0.0001
      6  CD2       -7.2580   -3.7400   -0.6960 C.3    17  LEU17       0.0001
      7  C         -6.6810    0.4320   -1.9250 C.2    17  LEU17       0.2592
      8  O         -7.3270    0.6200   -2.9560 O.2    17  LEU17      -0.2718
      9  N         -6.9500    1.1080   -0.7900 N.am   18  ASP18      -0.1960
     10  CA        -8.0880    2.0070   -0.5710 C.3    18  ASP18       0.1840
     11  CB        -9.1090    1.3410    0.3760 C.3    18  ASP18       0.1450
     12  CG       -10.1470    2.2990    0.9520 C.2    18  ASP18       0.3671
     13  OD1      -11.0720    2.5310    0.1500 O.co2  18  ASP18      -0.2456
     14  OD2      -10.1960    2.6850    2.1610 O.co2  18  ASP18      -0.2456
     15  C         -7.6280    3.3500    0.0060 C.2    18  ASP18       0.2622
     16  O         -7.9950    4.4650   -0.3580 O.2    18  ASP18      -0.2715
     17  N         -6.8140    3.2050    1.0390 N.am   19  ILE19      -0.1963
     18  CA        -6.1800    4.3790    1.8160 C.3    19  ILE19       0.1727
     19  CB        -5.3140    3.8890    3.0670 C.3    19  ILE19       0.0290
     20  CG2       -4.6600    5.0630    3.8540 C.3    19  ILE19       0.0023
     21  CG1       -6.1440    2.9790    3.9890 C.3    19  ILE19       0.0022
     22  CD1       -5.5170    2.2940    5.2130 C.3    19  ILE19       0.0001
     23  C         -5.2670    5.2520    0.8640 C.2    19  ILE19       0.2616
     24  O         -5.3920    6.4650    0.9090 O.2    19  ILE19      -0.2715
     25  N         -4.4890    4.6060    0.0020 N.am   20  ILE20      -0.1963
     26  CA        -3.9690    5.2910   -1.1850 C.3    20  ILE20       0.1727
     27  CB        -2.4460    5.7340   -1.0120 C.3    20  ILE20       0.0290
     28  CG2       -2.3030    7.0110   -0.1100 C.3    20  ILE20       0.0023
     29  CG1       -1.4300    4.6170   -0.6100 C.3    20  ILE20       0.0022
     30  CD1        0.0800    4.9990   -0.7110 C.3    20  ILE20       0.0001
     31  C         -4.1660    4.3690   -2.4130 C.2    20  ILE20       0.2617
     32  O         -3.9200    3.1710   -2.5010 O.2    20  ILE20      -0.2715
     33  N         -4.6410    5.0460   -3.5090 N.am   21  TRP21      -0.1938
     34  CA        -4.8980    4.4430   -4.8120 C.3    21  TRP21       0.2021
     35  CB        -6.2680    3.7450   -4.8170 C.3    21  TRP21       0.0612
     36  CG        -6.5090    2.9660   -6.0890 C.ar   21  TRP21       0.0007
     37  CD1       -7.0550    3.4090   -7.2190 C.ar   21  TRP21       0.0946
     38  NE1       -7.1560    2.4190   -8.1260 N.ar   21  TRP21      -0.2442
     39  CE2       -6.6880    1.2600   -7.6470 C.ar   21  TRP21       0.0810
     40  CZ2       -6.5320   -0.1050   -8.0600 C.ar   21  TRP21       0.0191
     41  CH2       -5.9630   -1.0770   -7.2340 C.ar   21  TRP21       0.0015
     42  CZ3       -5.4330   -0.7150   -5.9030 C.ar   21  TRP21       0.0001
     43  CE3       -5.5290    0.6400   -5.5430 C.ar   21  TRP21       0.0012
     44  CD2       -6.2440    1.5830   -6.3190 C.ar   21  TRP21       0.0152
     45  C         -4.7460    5.5030   -5.9410 C.2    21  TRP21       0.3845
     46  O         -5.6740    6.3580   -6.0770 O.co2  21  TRP21      -0.2437
     47  OXT       -3.7150    5.4030   -6.6310 O.co2  21  TRP21      -0.2437
@<TRIPOS>BOND
     1    38    39   ar
     2    38    37   ar
     3    40    39   ar
     4    40    41   ar
     5    39    44   ar
     6    41    42   ar
     7    37    36   ar
     8    47    45   ar
     9    44    36   ar
    10    44    43   ar
    11    36    35    1
    12    46    45   ar
    13    45    34    1
    14    42    43   ar
    15    35    34    1
    16    34    33    1
    17    33    31   am
    18     5     4    1
    19     8     7    2
    20    32    31    2
    21    31    26    1
    22     7     2    1
    23     7     9   am
    24     2     1    1
    25     2     3    1
    26     4     3    1
    27     4     6    1
    28    26    27    1
    29    26    25    1
    30    27    29    1
    31    27    28    1
    32     9    10    1
    33    30    29    1
    34    10    15    1
    35    10    11    1
    36    16    15    2
    37    25    23   am
    38    15    17   am
    39    13    12   ar
    40    11    12    1
    41    23    24    2
    42    23    18    1
    43    12    14   ar
    44    17    18    1
    45    18    19    1
    46    19    20    1
    47    19    21    1
    48    21    22    1
