@<TRIPOS>MOLECULE
../1EDN/PCA3_17-21_NOBACKBONE.pdb
 26 23 0 0 0
SMALL
GASTEIGER

@<TRIPOS>ATOM
      1  CB        -5.7360   -1.8160   -1.1010 C.3    17  LEU17       0.0000
      2  CG        -6.9950   -2.5690   -1.5730 C.3    17  LEU17       0.0000
      3  CD1       -6.7530   -3.1800   -3.0080 C.3    17  LEU17       0.0000
      4  CD2       -7.2580   -3.7400   -0.6960 C.3    17  LEU17       0.0000
      5  CB        -9.1090    1.3410    0.3760 C.3    18  ASP18       0.1258
      6  CG       -10.1470    2.2990    0.9520 C.2    18  ASP18       0.3654
      7  OD1      -11.0720    2.5310    0.1500 O.co2  18  ASP18      -0.2456
      8  OD2      -10.1960    2.6850    2.1610 O.co2  18  ASP18      -0.2456
      9  CB        -5.3140    3.8890    3.0670 C.3    19  ILE19       0.0000
     10  CG2       -4.6600    5.0630    3.8540 C.3    19  ILE19       0.0000
     11  CG1       -6.1440    2.9790    3.9890 C.3    19  ILE19       0.0000
     12  CD1       -5.5170    2.2940    5.2130 C.3    19  ILE19       0.0000
     13  CB        -2.4460    5.7340   -1.0120 C.3    20  ILE20       0.0000
     14  CG2       -2.3030    7.0110   -0.1100 C.3    20  ILE20       0.0000
     15  CG1       -1.4300    4.6170   -0.6100 C.3    20  ILE20       0.0000
     16  CD1        0.0800    4.9990   -0.7110 C.3    20  ILE20       0.0000
     17  CB        -6.2680    3.7450   -4.8170 C.3    21  TRP21       0.0327
     18  CG        -6.5090    2.9660   -6.0890 C.ar   21  TRP21      -0.0013
     19  CD1       -7.0550    3.4090   -7.2190 C.ar   21  TRP21       0.0946
     20  NE1       -7.1560    2.4190   -8.1260 N.ar   21  TRP21      -0.2442
     21  CE2       -6.6880    1.2600   -7.6470 C.ar   21  TRP21       0.0810
     22  CZ2       -6.5320   -0.1050   -8.0600 C.ar   21  TRP21       0.0191
     23  CH2       -5.9630   -1.0770   -7.2340 C.ar   21  TRP21       0.0015
     24  CZ3       -5.4330   -0.7150   -5.9030 C.ar   21  TRP21       0.0001
     25  CE3       -5.5290    0.6400   -5.5430 C.ar   21  TRP21       0.0012
     26  CD2       -6.2440    1.5830   -6.3190 C.ar   21  TRP21       0.0152
@<TRIPOS>BOND
     1    20    21   ar
     2    20    19   ar
     3    22    21   ar
     4    22    23   ar
     5    21    26   ar
     6    23    24   ar
     7    19    18   ar
     8    26    18   ar
     9    26    25   ar
    10    18    17    1
    11    24    25   ar
    12     3     2    1
    13     2     1    1
    14     2     4    1
    15    13    15    1
    16    13    14    1
    17    16    15    1
    18     7     6   ar
    19     5     6    1
    20     6     8   ar
    21     9    10    1
    22     9    11    1
    23    11    12    1
@<TRIPOS>MOLECULE
3047752
 70 74 0 0 0
SMALL
GASTEIGER

@<TRIPOS>ATOM
      1 O          -6.0054    3.8401   -2.4612 O.co2   1  LIG11      -0.5495
      2 O          -4.2536    2.5157   -1.8583 O.co2   1  LIG11      -0.5495
      3 O          -5.1240    2.2463   -7.7410 O.3     1  LIG11      -0.4526
      4 O          -7.2524    1.3954   -8.4952 O.3     1  LIG11      -0.4526
      5 O         -11.4449    2.5862    1.6421 O.3     1  LIG11      -0.4951
      6 O          -5.0096    1.2125    4.3946 O.co2   1  LIG11      -0.5495
      7 O          -4.7435    3.4138    4.8927 O.co2   1  LIG11      -0.5495
      8 N          -7.0764   -1.6157   -0.4396 N.ar    1  LIG11      -0.2556
      9 C          -6.3834    1.5337   -2.2045 C.3     1  LIG11       0.0217
     10 C          -6.5683    0.8623   -0.8173 C.3     1  LIG11       0.0357
     11 C          -5.7114    0.4956   -3.1355 C.3     1  LIG11       0.0199
     12 C          -6.1017   -0.8068   -2.4920 C.ar    1  LIG11      -0.0174
     13 C          -6.6194   -0.6126   -1.2194 C.ar    1  LIG11       0.0534
     14 C          -7.8216    1.3331   -0.0689 C.ar    1  LIG11      -0.0344
     15 C          -6.1683    0.6652   -4.5823 C.ar    1  LIG11      -0.0356
     16 C          -5.4632    2.7439   -2.1384 C.2     1  LIG11       0.0466
     17 C          -5.9704   -2.0938   -2.9857 C.ar    1  LIG11      -0.0546
     18 C          -7.7886    1.8799    1.2424 C.ar    1  LIG11      -0.0395
     19 C          -9.0740    1.1947   -0.7132 C.ar    1  LIG11      -0.0542
     20 C          -6.9859   -2.8688   -0.9457 C.ar    1  LIG11       0.0416
     21 C          -5.3467    1.3832   -5.4698 C.ar    1  LIG11      -0.0124
     22 C          -6.4263   -3.1455   -2.1978 C.ar    1  LIG11      -0.0401
     23 C          -7.4225    0.1864   -5.0376 C.ar    1  LIG11      -0.0543
     24 C          -6.4783    1.9804    2.0398 C.3     1  LIG11      -0.0196
     25 C          -9.0138    2.2785    1.8257 C.ar    1  LIG11      -0.0165
     26 C          -7.5658   -3.9785   -0.1077 C.3     1  LIG11      -0.0104
     27 C          -6.4788    2.7848    3.3643 C.3     1  LIG11      -0.0003
     28 C          -5.7889    1.5744   -6.7616 C.ar    1  LIG11       0.1665
     29 C         -10.2605    1.6121   -0.1150 C.ar    1  LIG11      -0.0197
     30 C          -7.8414    0.3879   -6.3563 C.ar    1  LIG11      -0.0159
     31 C         -10.2317    2.1820    1.1473 C.ar    1  LIG11       0.1204
     32 C          -7.0016    1.0885   -7.1925 C.ar    1  LIG11       0.1662
     33 C          -9.0838   -4.1245   -0.2730 C.3     1  LIG11      -0.0479
     34 C          -6.5737    4.2896    3.0971 C.3     1  LIG11      -0.0570
     35 C          -9.4974   -4.6316   -1.6581 C.3     1  LIG11      -0.0556
     36 C          -5.2734    2.4438    4.2745 C.2     1  LIG11       0.0449
     37 C          -6.0959    2.2014   -8.8004 C.3     1  LIG11       0.2332
     38 C         -10.9957   -4.8800   -1.7391 C.3     1  LIG11      -0.0653
     39 C         -11.3753    3.6353    2.6025 C.3     1  LIG11       0.0788
     40 H          -7.3460    1.8525   -2.6260 H       1  LIG11       0.0379
     41 H          -5.6701    0.9863   -0.2052 H       1  LIG11       0.0419
     42 H          -4.6147    0.5287   -3.1079 H       1  LIG11       0.0404
     43 H          -5.5359   -2.2723   -3.9629 H       1  LIG11       0.0622
     44 H          -9.1263    0.7514   -1.7046 H       1  LIG11       0.0622
     45 H          -4.4040    1.8090   -5.1358 H       1  LIG11       0.0658
     46 H          -6.3602   -4.1644   -2.5615 H       1  LIG11       0.0636
     47 H          -8.0864   -0.3319   -4.3480 H       1  LIG11       0.0622
     48 H          -6.1638    0.9478    2.2338 H       1  LIG11       0.0319
     49 H          -5.7178    2.4324    1.3903 H       1  LIG11       0.0319
     50 H          -9.0128    2.6659    2.8359 H       1  LIG11       0.0657
     51 H          -7.0641   -4.9276   -0.3324 H       1  LIG11       0.0328
     52 H          -7.3465   -3.7605    0.9452 H       1  LIG11       0.0328
     53 H          -7.3350    2.4861    3.9808 H       1  LIG11       0.0361
     54 H         -11.2000    1.5039   -0.6451 H       1  LIG11       0.0654
     55 H          -8.8024    0.0255   -6.6986 H       1  LIG11       0.0655
     56 H          -9.4423   -4.8329    0.4843 H       1  LIG11       0.0269
     57 H          -9.5787   -3.1663   -0.0708 H       1  LIG11       0.0269
     58 H          -5.6767    4.6573    2.5865 H       1  LIG11       0.0236
     59 H          -7.4385    4.5422    2.4768 H       1  LIG11       0.0236
     60 H          -6.6773    4.8495    4.0333 H       1  LIG11       0.0236
     61 H          -9.2256   -3.9010   -2.4276 H       1  LIG11       0.0263
     62 H          -8.9668   -5.5626   -1.8886 H       1  LIG11       0.0263
     63 H          -6.4284    3.2236   -9.0185 H       1  LIG11       0.1166
     64 H          -5.6159    1.7933   -9.6968 H       1  LIG11       0.1166
     65 H         -11.5572   -3.9619   -1.5386 H       1  LIG11       0.0230
     66 H         -11.2669   -5.2319   -2.7397 H       1  LIG11       0.0230
     67 H         -11.3077   -5.6404   -1.0164 H       1  LIG11       0.0230
     68 H         -12.3848    4.0401    2.7252 H       1  LIG11       0.0660
     69 H         -11.0521    3.2529    3.5758 H       1  LIG11       0.0660
     70 H         -10.7301    4.4542    2.2644 H       1  LIG11       0.0660
@<TRIPOS>BOND
     1     1    16   ar
     2     2    16   ar
     3     3    28    1
     4     3    37    1
     5     4    32    1
     6     4    37    1
     7     5    31    1
     8     5    39    1
     9     6    36   ar
    10     7    36   ar
    11     8    13   ar
    12     8    20   ar
    13     9    10    1
    14     9    11    1
    15     9    16    1
    16    10    13    1
    17    10    14    1
    18    11    12    1
    19    11    15    1
    20    12    13   ar
    21    12    17   ar
    22    14    18   ar
    23    14    19   ar
    24    15    21   ar
    25    15    23   ar
    26    17    22   ar
    27    18    24    1
    28    18    25   ar
    29    19    29   ar
    30    20    22   ar
    31    20    26    1
    32    21    28   ar
    33    23    30   ar
    34    24    27    1
    35    25    31   ar
    36    26    33    1
    37    27    34    1
    38    27    36    1
    39    28    32   ar
    40    29    31   ar
    41    30    32   ar
    42    33    35    1
    43    35    38    1
    44     9    40    1
    45    10    41    1
    46    11    42    1
    47    17    43    1
    48    19    44    1
    49    21    45    1
    50    22    46    1
    51    23    47    1
    52    24    48    1
    53    24    49    1
    54    25    50    1
    55    26    51    1
    56    26    52    1
    57    27    53    1
    58    29    54    1
    59    30    55    1
    60    33    56    1
    61    33    57    1
    62    34    58    1
    63    34    59    1
    64    34    60    1
    65    35    61    1
    66    35    62    1
    67    37    63    1
    68    37    64    1
    69    38    65    1
    70    38    66    1
    71    38    67    1
    72    39    68    1
    73    39    69    1
    74    39    70    1
@<TRIPOS>MOLECULE
../1EDN/PCA3_17-21.pdb
 47 48 0 0 0
SMALL
GASTEIGER

@<TRIPOS>ATOM
      1  N         -4.2370    0.0490   -1.5930 N.3    17  LEU17      -0.1231
      2  CA        -5.5250   -0.5610   -1.9200 C.3    17  LEU17       0.1693
      3  CB        -5.7360   -1.8160   -1.1010 C.3    17  LEU17       0.0284
      4  CG        -6.9950   -2.5690   -1.5730 C.3    17  LEU17       0.0019
      5  CD1       -6.7530   -3.1800   -3.0080 C.3    17  LEU17       0.0001
      6  CD2       -7.2580   -3.7400   -0.6960 C.3    17  LEU17       0.0001
      7  C         -6.6810    0.4320   -1.9250 C.2    17  LEU17       0.2592
      8  O         -7.3270    0.6200   -2.9560 O.2    17  LEU17      -0.2718
      9  N         -6.9500    1.1080   -0.7900 N.am   18  ASP18      -0.1960
     10  CA        -8.0880    2.0070   -0.5710 C.3    18  ASP18       0.1840
     11  CB        -9.1090    1.3410    0.3760 C.3    18  ASP18       0.1450
     12  CG       -10.1470    2.2990    0.9520 C.2    18  ASP18       0.3671
     13  OD1      -11.0720    2.5310    0.1500 O.co2  18  ASP18      -0.2456
     14  OD2      -10.1960    2.6850    2.1610 O.co2  18  ASP18      -0.2456
     15  C         -7.6280    3.3500    0.0060 C.2    18  ASP18       0.2622
     16  O         -7.9950    4.4650   -0.3580 O.2    18  ASP18      -0.2715
     17  N         -6.8140    3.2050    1.0390 N.am   19  ILE19      -0.1963
     18  CA        -6.1800    4.3790    1.8160 C.3    19  ILE19       0.1727
     19  CB        -5.3140    3.8890    3.0670 C.3    19  ILE19       0.0290
     20  CG2       -4.6600    5.0630    3.8540 C.3    19  ILE19       0.0023
     21  CG1       -6.1440    2.9790    3.9890 C.3    19  ILE19       0.0022
     22  CD1       -5.5170    2.2940    5.2130 C.3    19  ILE19       0.0001
     23  C         -5.2670    5.2520    0.8640 C.2    19  ILE19       0.2616
     24  O         -5.3920    6.4650    0.9090 O.2    19  ILE19      -0.2715
     25  N         -4.4890    4.6060    0.0020 N.am   20  ILE20      -0.1963
     26  CA        -3.9690    5.2910   -1.1850 C.3    20  ILE20       0.1727
     27  CB        -2.4460    5.7340   -1.0120 C.3    20  ILE20       0.0290
     28  CG2       -2.3030    7.0110   -0.1100 C.3    20  ILE20       0.0023
     29  CG1       -1.4300    4.6170   -0.6100 C.3    20  ILE20       0.0022
     30  CD1        0.0800    4.9990   -0.7110 C.3    20  ILE20       0.0001
     31  C         -4.1660    4.3690   -2.4130 C.2    20  ILE20       0.2617
     32  O         -3.9200    3.1710   -2.5010 O.2    20  ILE20      -0.2715
     33  N         -4.6410    5.0460   -3.5090 N.am   21  TRP21      -0.1938
     34  CA        -4.8980    4.4430   -4.8120 C.3    21  TRP21       0.2021
     35  CB        -6.2680    3.7450   -4.8170 C.3    21  TRP21       0.0612
     36  CG        -6.5090    2.9660   -6.0890 C.ar   21  TRP21       0.0007
     37  CD1       -7.0550    3.4090   -7.2190 C.ar   21  TRP21       0.0946
     38  NE1       -7.1560    2.4190   -8.1260 N.ar   21  TRP21      -0.2442
     39  CE2       -6.6880    1.2600   -7.6470 C.ar   21  TRP21       0.0810
     40  CZ2       -6.5320   -0.1050   -8.0600 C.ar   21  TRP21       0.0191
     41  CH2       -5.9630   -1.0770   -7.2340 C.ar   21  TRP21       0.0015
     42  CZ3       -5.4330   -0.7150   -5.9030 C.ar   21  TRP21       0.0001
     43  CE3       -5.5290    0.6400   -5.5430 C.ar   21  TRP21       0.0012
     44  CD2       -6.2440    1.5830   -6.3190 C.ar   21  TRP21       0.0152
     45  C         -4.7460    5.5030   -5.9410 C.2    21  TRP21       0.3845
     46  O         -5.6740    6.3580   -6.0770 O.co2  21  TRP21      -0.2437
     47  OXT       -3.7150    5.4030   -6.6310 O.co2  21  TRP21      -0.2437
@<TRIPOS>BOND
     1    38    39   ar
     2    38    37   ar
     3    40    39   ar
     4    40    41   ar
     5    39    44   ar
     6    41    42   ar
     7    37    36   ar
     8    47    45   ar
     9    44    36   ar
    10    44    43   ar
    11    36    35    1
    12    46    45   ar
    13    45    34    1
    14    42    43   ar
    15    35    34    1
    16    34    33    1
    17    33    31   am
    18     5     4    1
    19     8     7    2
    20    32    31    2
    21    31    26    1
    22     7     2    1
    23     7     9   am
    24     2     1    1
    25     2     3    1
    26     4     3    1
    27     4     6    1
    28    26    27    1
    29    26    25    1
    30    27    29    1
    31    27    28    1
    32     9    10    1
    33    30    29    1
    34    10    15    1
    35    10    11    1
    36    16    15    2
    37    25    23   am
    38    15    17   am
    39    13    12   ar
    40    11    12    1
    41    23    24    2
    42    23    18    1
    43    12    14   ar
    44    17    18    1
    45    18    19    1
    46    19    20    1
    47    19    21    1
    48    21    22    1
