@<TRIPOS>MOLECULE
../1EDN/PCA3_17-21_NOBACKBONE.pdb
 26 23 0 0 0
SMALL
GASTEIGER

@<TRIPOS>ATOM
      1  CB        -5.7360   -1.8160   -1.1010 C.3    17  LEU17       0.0000
      2  CG        -6.9950   -2.5690   -1.5730 C.3    17  LEU17       0.0000
      3  CD1       -6.7530   -3.1800   -3.0080 C.3    17  LEU17       0.0000
      4  CD2       -7.2580   -3.7400   -0.6960 C.3    17  LEU17       0.0000
      5  CB        -9.1090    1.3410    0.3760 C.3    18  ASP18       0.1258
      6  CG       -10.1470    2.2990    0.9520 C.2    18  ASP18       0.3654
      7  OD1      -11.0720    2.5310    0.1500 O.co2  18  ASP18      -0.2456
      8  OD2      -10.1960    2.6850    2.1610 O.co2  18  ASP18      -0.2456
      9  CB        -5.3140    3.8890    3.0670 C.3    19  ILE19       0.0000
     10  CG2       -4.6600    5.0630    3.8540 C.3    19  ILE19       0.0000
     11  CG1       -6.1440    2.9790    3.9890 C.3    19  ILE19       0.0000
     12  CD1       -5.5170    2.2940    5.2130 C.3    19  ILE19       0.0000
     13  CB        -2.4460    5.7340   -1.0120 C.3    20  ILE20       0.0000
     14  CG2       -2.3030    7.0110   -0.1100 C.3    20  ILE20       0.0000
     15  CG1       -1.4300    4.6170   -0.6100 C.3    20  ILE20       0.0000
     16  CD1        0.0800    4.9990   -0.7110 C.3    20  ILE20       0.0000
     17  CB        -6.2680    3.7450   -4.8170 C.3    21  TRP21       0.0327
     18  CG        -6.5090    2.9660   -6.0890 C.ar   21  TRP21      -0.0013
     19  CD1       -7.0550    3.4090   -7.2190 C.ar   21  TRP21       0.0946
     20  NE1       -7.1560    2.4190   -8.1260 N.ar   21  TRP21      -0.2442
     21  CE2       -6.6880    1.2600   -7.6470 C.ar   21  TRP21       0.0810
     22  CZ2       -6.5320   -0.1050   -8.0600 C.ar   21  TRP21       0.0191
     23  CH2       -5.9630   -1.0770   -7.2340 C.ar   21  TRP21       0.0015
     24  CZ3       -5.4330   -0.7150   -5.9030 C.ar   21  TRP21       0.0001
     25  CE3       -5.5290    0.6400   -5.5430 C.ar   21  TRP21       0.0012
     26  CD2       -6.2440    1.5830   -6.3190 C.ar   21  TRP21       0.0152
@<TRIPOS>BOND
     1    20    21   ar
     2    20    19   ar
     3    22    21   ar
     4    22    23   ar
     5    21    26   ar
     6    23    24   ar
     7    19    18   ar
     8    26    18   ar
     9    26    25   ar
    10    18    17    1
    11    24    25   ar
    12     3     2    1
    13     2     1    1
    14     2     4    1
    15    13    15    1
    16    13    14    1
    17    16    15    1
    18     7     6   ar
    19     5     6    1
    20     6     8   ar
    21     9    10    1
    22     9    11    1
    23    11    12    1
@<TRIPOS>MOLECULE
6918493
 49 51 0 0 0
SMALL
GASTEIGER

@<TRIPOS>ATOM
      1 O          -7.4125   -2.7576   -1.4978 O.3     1  LIG11      -0.3632
      2 O          -6.4297    0.2455   -3.5948 O.3     1  LIG11      -0.4495
      3 O          -9.0943   -0.2744   -4.0655 O.co2   1  LIG11      -0.5459
      4 O          -8.6296   -2.4833   -4.3184 O.co2   1  LIG11      -0.5459
      5 N          -6.1270   -0.4524   -5.8132 N.ar    1  LIG11      -0.2002
      6 N          -6.4367    1.8441   -5.2504 N.ar    1  LIG11      -0.2002
      7 C          -6.9118   -1.4197   -1.8077 C.3     1  LIG11       0.1609
      8 C          -6.9369   -1.1015   -3.3423 C.3     1  LIG11       0.1791
      9 C          -7.8362   -0.4244   -1.0452 C.ar    1  LIG11      -0.0075
     10 C          -5.4850   -1.4110   -1.1554 C.ar    1  LIG11      -0.0075
     11 C          -9.1945   -0.7232   -0.8330 C.ar    1  LIG11      -0.0554
     12 C          -5.3584   -1.7265    0.2176 C.ar    1  LIG11      -0.0554
     13 C          -7.3643    0.8227   -0.5898 C.ar    1  LIG11      -0.0554
     14 C          -4.3041   -1.1459   -1.8675 C.ar    1  LIG11      -0.0554
     15 C          -8.3614   -1.2988   -3.9439 C.2     1  LIG11       0.0856
     16 C          -6.7693   -3.8473   -2.1468 C.3     1  LIG11       0.0382
     17 C         -10.0406    0.1772   -0.1804 C.ar    1  LIG11      -0.0614
     18 C          -4.1143   -1.7605    0.8509 C.ar    1  LIG11      -0.0614
     19 C          -8.2056    1.7148    0.0805 C.ar    1  LIG11      -0.0614
     20 C          -3.0567   -1.1806   -1.2327 C.ar    1  LIG11      -0.0614
     21 C          -9.5442    1.3921    0.2841 C.ar    1  LIG11      -0.0617
     22 C          -2.9617   -1.4853    0.1218 C.ar    1  LIG11      -0.0617
     23 C          -6.3649    0.5404   -4.9399 C.ar    1  LIG11       0.3191
     24 C          -6.1539   -0.1263   -7.1153 C.ar    1  LIG11       0.0453
     25 C          -6.4481    2.1399   -6.5626 C.ar    1  LIG11       0.0453
     26 C          -6.3177    1.1754   -7.5449 C.ar    1  LIG11      -0.0193
     27 C          -6.0228   -1.2456   -8.1008 C.3     1  LIG11      -0.0221
     28 C          -6.6356    3.5774   -6.9381 C.3     1  LIG11      -0.0221
     29 H          -6.2672   -1.8112   -3.8453 H       1  LIG11       0.0834
     30 H          -9.6120   -1.6493   -1.2265 H       1  LIG11       0.0621
     31 H          -6.2538   -1.9542    0.7956 H       1  LIG11       0.0621
     32 H          -6.3331    1.1164   -0.7726 H       1  LIG11       0.0621
     33 H          -4.3267   -0.9103   -2.9279 H       1  LIG11       0.0621
     34 H          -7.2757   -4.7652   -1.8347 H       1  LIG11       0.0524
     35 H          -5.7221   -3.9334   -1.8439 H       1  LIG11       0.0524
     36 H          -6.8309   -3.7932   -3.2337 H       1  LIG11       0.0524
     37 H         -11.0928   -0.0654   -0.0696 H       1  LIG11       0.0618
     38 H          -4.0534   -2.0040    1.9063 H       1  LIG11       0.0618
     39 H          -7.8167    2.6710    0.4159 H       1  LIG11       0.0618
     40 H          -2.1591   -0.9688   -1.8073 H       1  LIG11       0.0618
     41 H         -10.2071    2.0974    0.7743 H       1  LIG11       0.0618
     42 H          -1.9907   -1.5122    0.6090 H       1  LIG11       0.0618
     43 H          -6.3545    1.4252   -8.5963 H       1  LIG11       0.0653
     44 H          -5.9390   -2.2098   -7.5884 H       1  LIG11       0.0293
     45 H          -5.1277   -1.1065   -8.7146 H       1  LIG11       0.0293
     46 H          -6.9027   -1.2836   -8.7507 H       1  LIG11       0.0293
     47 H          -6.7523    4.2026   -6.0471 H       1  LIG11       0.0293
     48 H          -7.5331    3.6939   -7.5540 H       1  LIG11       0.0293
     49 H          -5.7669    3.9384   -7.4974 H       1  LIG11       0.0293
@<TRIPOS>BOND
     1     1     7    1
     2     1    16    1
     3     2     8    1
     4     2    23    1
     5     3    15   ar
     6     4    15   ar
     7     5    23   ar
     8     5    24   ar
     9     6    23   ar
    10     6    25   ar
    11     7     8    1
    12     7     9    1
    13     7    10    1
    14     8    15    1
    15     9    11   ar
    16     9    13   ar
    17    10    12   ar
    18    10    14   ar
    19    11    17   ar
    20    12    18   ar
    21    13    19   ar
    22    14    20   ar
    23    17    21   ar
    24    18    22   ar
    25    19    21   ar
    26    20    22   ar
    27    24    26   ar
    28    24    27    1
    29    25    26   ar
    30    25    28    1
    31     8    29    1
    32    11    30    1
    33    12    31    1
    34    13    32    1
    35    14    33    1
    36    16    34    1
    37    16    35    1
    38    16    36    1
    39    17    37    1
    40    18    38    1
    41    19    39    1
    42    20    40    1
    43    21    41    1
    44    22    42    1
    45    26    43    1
    46    27    44    1
    47    27    45    1
    48    27    46    1
    49    28    47    1
    50    28    48    1
    51    28    49    1
@<TRIPOS>MOLECULE
../1EDN/PCA3_17-21.pdb
 47 48 0 0 0
SMALL
GASTEIGER

@<TRIPOS>ATOM
      1  N         -4.2370    0.0490   -1.5930 N.3    17  LEU17      -0.1231
      2  CA        -5.5250   -0.5610   -1.9200 C.3    17  LEU17       0.1693
      3  CB        -5.7360   -1.8160   -1.1010 C.3    17  LEU17       0.0284
      4  CG        -6.9950   -2.5690   -1.5730 C.3    17  LEU17       0.0019
      5  CD1       -6.7530   -3.1800   -3.0080 C.3    17  LEU17       0.0001
      6  CD2       -7.2580   -3.7400   -0.6960 C.3    17  LEU17       0.0001
      7  C         -6.6810    0.4320   -1.9250 C.2    17  LEU17       0.2592
      8  O         -7.3270    0.6200   -2.9560 O.2    17  LEU17      -0.2718
      9  N         -6.9500    1.1080   -0.7900 N.am   18  ASP18      -0.1960
     10  CA        -8.0880    2.0070   -0.5710 C.3    18  ASP18       0.1840
     11  CB        -9.1090    1.3410    0.3760 C.3    18  ASP18       0.1450
     12  CG       -10.1470    2.2990    0.9520 C.2    18  ASP18       0.3671
     13  OD1      -11.0720    2.5310    0.1500 O.co2  18  ASP18      -0.2456
     14  OD2      -10.1960    2.6850    2.1610 O.co2  18  ASP18      -0.2456
     15  C         -7.6280    3.3500    0.0060 C.2    18  ASP18       0.2622
     16  O         -7.9950    4.4650   -0.3580 O.2    18  ASP18      -0.2715
     17  N         -6.8140    3.2050    1.0390 N.am   19  ILE19      -0.1963
     18  CA        -6.1800    4.3790    1.8160 C.3    19  ILE19       0.1727
     19  CB        -5.3140    3.8890    3.0670 C.3    19  ILE19       0.0290
     20  CG2       -4.6600    5.0630    3.8540 C.3    19  ILE19       0.0023
     21  CG1       -6.1440    2.9790    3.9890 C.3    19  ILE19       0.0022
     22  CD1       -5.5170    2.2940    5.2130 C.3    19  ILE19       0.0001
     23  C         -5.2670    5.2520    0.8640 C.2    19  ILE19       0.2616
     24  O         -5.3920    6.4650    0.9090 O.2    19  ILE19      -0.2715
     25  N         -4.4890    4.6060    0.0020 N.am   20  ILE20      -0.1963
     26  CA        -3.9690    5.2910   -1.1850 C.3    20  ILE20       0.1727
     27  CB        -2.4460    5.7340   -1.0120 C.3    20  ILE20       0.0290
     28  CG2       -2.3030    7.0110   -0.1100 C.3    20  ILE20       0.0023
     29  CG1       -1.4300    4.6170   -0.6100 C.3    20  ILE20       0.0022
     30  CD1        0.0800    4.9990   -0.7110 C.3    20  ILE20       0.0001
     31  C         -4.1660    4.3690   -2.4130 C.2    20  ILE20       0.2617
     32  O         -3.9200    3.1710   -2.5010 O.2    20  ILE20      -0.2715
     33  N         -4.6410    5.0460   -3.5090 N.am   21  TRP21      -0.1938
     34  CA        -4.8980    4.4430   -4.8120 C.3    21  TRP21       0.2021
     35  CB        -6.2680    3.7450   -4.8170 C.3    21  TRP21       0.0612
     36  CG        -6.5090    2.9660   -6.0890 C.ar   21  TRP21       0.0007
     37  CD1       -7.0550    3.4090   -7.2190 C.ar   21  TRP21       0.0946
     38  NE1       -7.1560    2.4190   -8.1260 N.ar   21  TRP21      -0.2442
     39  CE2       -6.6880    1.2600   -7.6470 C.ar   21  TRP21       0.0810
     40  CZ2       -6.5320   -0.1050   -8.0600 C.ar   21  TRP21       0.0191
     41  CH2       -5.9630   -1.0770   -7.2340 C.ar   21  TRP21       0.0015
     42  CZ3       -5.4330   -0.7150   -5.9030 C.ar   21  TRP21       0.0001
     43  CE3       -5.5290    0.6400   -5.5430 C.ar   21  TRP21       0.0012
     44  CD2       -6.2440    1.5830   -6.3190 C.ar   21  TRP21       0.0152
     45  C         -4.7460    5.5030   -5.9410 C.2    21  TRP21       0.3845
     46  O         -5.6740    6.3580   -6.0770 O.co2  21  TRP21      -0.2437
     47  OXT       -3.7150    5.4030   -6.6310 O.co2  21  TRP21      -0.2437
@<TRIPOS>BOND
     1    38    39   ar
     2    38    37   ar
     3    40    39   ar
     4    40    41   ar
     5    39    44   ar
     6    41    42   ar
     7    37    36   ar
     8    47    45   ar
     9    44    36   ar
    10    44    43   ar
    11    36    35    1
    12    46    45   ar
    13    45    34    1
    14    42    43   ar
    15    35    34    1
    16    34    33    1
    17    33    31   am
    18     5     4    1
    19     8     7    2
    20    32    31    2
    21    31    26    1
    22     7     2    1
    23     7     9   am
    24     2     1    1
    25     2     3    1
    26     4     3    1
    27     4     6    1
    28    26    27    1
    29    26    25    1
    30    27    29    1
    31    27    28    1
    32     9    10    1
    33    30    29    1
    34    10    15    1
    35    10    11    1
    36    16    15    2
    37    25    23   am
    38    15    17   am
    39    13    12   ar
    40    11    12    1
    41    23    24    2
    42    23    18    1
    43    12    14   ar
    44    17    18    1
    45    18    19    1
    46    19    20    1
    47    19    21    1
    48    21    22    1
