@<TRIPOS>MOLECULE
../1EDN/PCA3_17-21_NOBACKBONE.pdb
 26 23 0 0 0
SMALL
GASTEIGER

@<TRIPOS>ATOM
      1  CB        -5.7360   -1.8160   -1.1010 C.3    17  LEU17       0.0000
      2  CG        -6.9950   -2.5690   -1.5730 C.3    17  LEU17       0.0000
      3  CD1       -6.7530   -3.1800   -3.0080 C.3    17  LEU17       0.0000
      4  CD2       -7.2580   -3.7400   -0.6960 C.3    17  LEU17       0.0000
      5  CB        -9.1090    1.3410    0.3760 C.3    18  ASP18       0.1258
      6  CG       -10.1470    2.2990    0.9520 C.2    18  ASP18       0.3654
      7  OD1      -11.0720    2.5310    0.1500 O.co2  18  ASP18      -0.2456
      8  OD2      -10.1960    2.6850    2.1610 O.co2  18  ASP18      -0.2456
      9  CB        -5.3140    3.8890    3.0670 C.3    19  ILE19       0.0000
     10  CG2       -4.6600    5.0630    3.8540 C.3    19  ILE19       0.0000
     11  CG1       -6.1440    2.9790    3.9890 C.3    19  ILE19       0.0000
     12  CD1       -5.5170    2.2940    5.2130 C.3    19  ILE19       0.0000
     13  CB        -2.4460    5.7340   -1.0120 C.3    20  ILE20       0.0000
     14  CG2       -2.3030    7.0110   -0.1100 C.3    20  ILE20       0.0000
     15  CG1       -1.4300    4.6170   -0.6100 C.3    20  ILE20       0.0000
     16  CD1        0.0800    4.9990   -0.7110 C.3    20  ILE20       0.0000
     17  CB        -6.2680    3.7450   -4.8170 C.3    21  TRP21       0.0327
     18  CG        -6.5090    2.9660   -6.0890 C.ar   21  TRP21      -0.0013
     19  CD1       -7.0550    3.4090   -7.2190 C.ar   21  TRP21       0.0946
     20  NE1       -7.1560    2.4190   -8.1260 N.ar   21  TRP21      -0.2442
     21  CE2       -6.6880    1.2600   -7.6470 C.ar   21  TRP21       0.0810
     22  CZ2       -6.5320   -0.1050   -8.0600 C.ar   21  TRP21       0.0191
     23  CH2       -5.9630   -1.0770   -7.2340 C.ar   21  TRP21       0.0015
     24  CZ3       -5.4330   -0.7150   -5.9030 C.ar   21  TRP21       0.0001
     25  CE3       -5.5290    0.6400   -5.5430 C.ar   21  TRP21       0.0012
     26  CD2       -6.2440    1.5830   -6.3190 C.ar   21  TRP21       0.0152
@<TRIPOS>BOND
     1    20    21   ar
     2    20    19   ar
     3    22    21   ar
     4    22    23   ar
     5    21    26   ar
     6    23    24   ar
     7    19    18   ar
     8    26    18   ar
     9    26    25   ar
    10    18    17    1
    11    24    25   ar
    12     3     2    1
    13     2     1    1
    14     2     4    1
    15    13    15    1
    16    13    14    1
    17    16    15    1
    18     7     6   ar
    19     5     6    1
    20     6     8   ar
    21     9    10    1
    22     9    11    1
    23    11    12    1
@<TRIPOS>MOLECULE
02228316B
 82 86 0 0 0
SMALL
GASTEIGER

@<TRIPOS>ATOM
      1 C          -4.5796    3.8801    1.6277 C.3     1  LIG11       0.2491
      2 C          -4.2582    3.0158    0.4330 C.2     1  LIG11       0.3556
      3 N          -3.6948    5.0538    1.4429 N.2     1  LIG11      -0.0687
      4 C          -4.3372    3.1925    2.9692 C.3     1  LIG11       0.0059
      5 C          -6.0485    4.3285    1.6100 C.3     1  LIG11       0.0059
      6 N          -3.6018    3.8367   -0.4452 N.am    1  LIG11      -0.1529
      7 O          -4.5152    1.8292    0.3082 O.2     1  LIG11      -0.2422
      8 C          -3.2288    4.9355    0.2314 C.2     1  LIG11       0.2916
      9 C          -5.7350    2.9337    3.5225 C.3     1  LIG11      -0.0481
     10 C          -6.5322    4.1334    3.0409 C.3     1  LIG11      -0.0481
     11 C          -3.1648    3.3381   -1.7313 C.3     1  LIG11       0.1137
     12 C          -2.3615    6.0543   -0.3198 C.3     1  LIG11       0.0509
     13 C          -4.1868    3.3807   -2.8452 C.ar    1  LIG11      -0.0073
     14 C          -0.9840    5.7506   -0.9105 C.3     1  LIG11      -0.0424
     15 C          -3.8126    3.9058   -4.0895 C.ar    1  LIG11      -0.0491
     16 C          -5.4168    2.7324   -2.7520 C.ar    1  LIG11      -0.0544
     17 C          -0.1619    4.6521   -0.2381 C.3     1  LIG11      -0.0554
     18 C          -4.5376    3.6270   -5.2659 C.ar    1  LIG11      -0.0138
     19 C          -6.1856    2.5082   -3.8967 C.ar    1  LIG11      -0.0533
     20 C           0.3012    5.0109    1.1626 C.3     1  LIG11      -0.0653
     21 C          -5.7137    2.8417   -5.1746 C.ar    1  LIG11      -0.0106
     22 C          -4.0244    4.1315   -6.6036 C.3     1  LIG11       0.0732
     23 C          -6.4268    2.3150   -6.3574 C.ar    1  LIG11       0.0091
     24 O          -2.7986    4.8666   -6.5072 O.3     1  LIG11      -0.3754
     25 C          -6.4932    0.9467   -6.7169 C.ar    1  LIG11       0.1162
     26 C          -7.0896    3.2334   -7.1998 C.ar    1  LIG11      -0.0521
     27 C          -1.6658    4.1890   -7.0456 C.3     1  LIG11       0.0453
     28 S          -5.7355   -0.3838   -5.7828 S.O2    1  LIG11       0.0741
     29 C          -7.1433    0.5506   -7.9049 C.ar    1  LIG11      -0.0345
     30 C          -7.7347    2.8304   -8.3725 C.ar    1  LIG11      -0.0611
     31 C          -1.1327    3.1305   -6.0972 C.3     1  LIG11      -0.0416
     32 N          -7.0479   -0.9520   -4.8597 N.pl3   1  LIG11      -0.1965
     33 O          -4.6669    0.1071   -4.9472 O.2     1  LIG11      -0.1499
     34 O          -5.4697   -1.4647   -6.7162 O.2     1  LIG11      -0.1499
     35 C          -7.7545    1.4901   -8.7300 C.ar    1  LIG11      -0.0599
     36 C          -6.8649   -1.0899   -3.4821 C.ar    1  LIG11       0.1837
     37 C          -6.2094   -2.1503   -2.8041 C.ar    1  LIG11       0.0342
     38 N          -7.4584   -0.2554   -2.6280 N.ar    1  LIG11      -0.0614
     39 C          -6.3562   -1.8161   -1.4726 C.ar    1  LIG11       0.1390
     40 C          -5.5053   -3.3268   -3.3586 C.3     1  LIG11      -0.0330
     41 O          -7.0997   -0.6849   -1.3680 O.2     1  LIG11      -0.3578
     42 C          -5.8935   -2.4016   -0.2003 C.3     1  LIG11      -0.0034
     43 H          -3.7716    2.2586    2.8863 H       1  LIG11       0.0316
     44 H          -3.7897    3.8509    3.6543 H       1  LIG11       0.0316
     45 H          -6.1818    5.3678    1.2903 H       1  LIG11       0.0316
     46 H          -6.6447    3.6996    0.9368 H       1  LIG11       0.0316
     47 H          -6.1468    2.0109    3.0961 H       1  LIG11       0.0267
     48 H          -5.7403    2.8398    4.6120 H       1  LIG11       0.0267
     49 H          -6.2900    5.0165    3.6438 H       1  LIG11       0.0267
     50 H          -7.6120    3.9685    3.0935 H       1  LIG11       0.0267
     51 H          -2.2795    3.8802   -2.0490 H       1  LIG11       0.0783
     52 H          -2.8484    2.2933   -1.6126 H       1  LIG11       0.0783
     53 H          -2.9594    6.5854   -1.0704 H       1  LIG11       0.0387
     54 H          -2.2129    6.7702    0.5011 H       1  LIG11       0.0387
     55 H          -1.0920    5.5118   -1.9741 H       1  LIG11       0.0271
     56 H          -0.4009    6.6817   -0.9034 H       1  LIG11       0.0271
     57 H          -2.8876    4.4745   -4.1621 H       1  LIG11       0.0625
     58 H          -5.7638    2.3034   -1.8154 H       1  LIG11       0.0622
     59 H          -0.7161    3.7089   -0.2085 H       1  LIG11       0.0263
     60 H           0.7254    4.4660   -0.8562 H       1  LIG11       0.0263
     61 H          -7.1260    1.9725   -3.7895 H       1  LIG11       0.0624
     62 H          -0.5439    5.1439    1.8426 H       1  LIG11       0.0230
     63 H           0.9335    4.2102    1.5602 H       1  LIG11       0.0230
     64 H           0.8926    5.9320    1.1546 H       1  LIG11       0.0230
     65 H          -3.9330    3.3050   -7.3180 H       1  LIG11       0.0610
     66 H          -4.7564    4.8460   -6.9961 H       1  LIG11       0.0610
     67 H          -7.1004    4.2927   -6.9430 H       1  LIG11       0.0624
     68 H          -1.8997    3.7665   -8.0288 H       1  LIG11       0.0557
     69 H          -0.8894    4.9461   -7.1978 H       1  LIG11       0.0557
     70 H          -7.1749   -0.4966   -8.2011 H       1  LIG11       0.0637
     71 H          -8.2179    3.5702   -9.0071 H       1  LIG11       0.0618
     72 H          -1.8727    2.3445   -5.9206 H       1  LIG11       0.0252
     73 H          -0.2280    2.6697   -6.5022 H       1  LIG11       0.0252
     74 H          -0.8897    3.5729   -5.1251 H       1  LIG11       0.0252
     75 H          -7.2916   -1.8419   -5.2931 H       1  LIG11       0.1753
     76 H          -8.2473    1.1739   -9.6462 H       1  LIG11       0.0618
     77 H          -5.5901   -3.3770   -4.4475 H       1  LIG11       0.0280
     78 H          -4.4422   -3.2948   -3.1011 H       1  LIG11       0.0280
     79 H          -5.9305   -4.2502   -2.9511 H       1  LIG11       0.0280
     80 H          -5.6509   -3.4621   -0.3190 H       1  LIG11       0.0309
     81 H          -4.9970   -1.8821    0.1518 H       1  LIG11       0.0309
     82 H          -6.6649   -2.3179    0.5717 H       1  LIG11       0.0309
@<TRIPOS>BOND
     1     1     5    1
     2     1     4    1
     3     1     2    1
     4     1     3    1
     5     2     6   am
     6     2     7    2
     7     3     8    2
     8     4     9    1
     9     5    10    1
    10     6     8    1
    11     6    11    1
    12     8    12    1
    13     9    10    1
    14    11    13    1
    15    12    14    1
    16    13    15   ar
    17    13    16   ar
    18    14    17    1
    19    15    18   ar
    20    16    19   ar
    21    17    20    1
    22    18    21   ar
    23    18    22    1
    24    19    21   ar
    25    21    23    1
    26    22    24    1
    27    23    26   ar
    28    23    25   ar
    29    24    27    1
    30    25    29   ar
    31    25    28    1
    32    26    30   ar
    33    27    31    1
    34    28    34    2
    35    28    33    2
    36    28    32    1
    37    29    35   ar
    38    30    35   ar
    39    32    36    1
    40    36    37   ar
    41    36    38   ar
    42    37    39   ar
    43    37    40    1
    44    38    41   ar
    45    39    41   ar
    46    39    42    1
    47     4    43    1
    48     4    44    1
    49     5    45    1
    50     5    46    1
    51     9    47    1
    52     9    48    1
    53    10    49    1
    54    10    50    1
    55    11    51    1
    56    11    52    1
    57    12    53    1
    58    12    54    1
    59    14    55    1
    60    14    56    1
    61    15    57    1
    62    16    58    1
    63    17    59    1
    64    17    60    1
    65    19    61    1
    66    20    62    1
    67    20    63    1
    68    20    64    1
    69    22    65    1
    70    22    66    1
    71    26    67    1
    72    27    68    1
    73    27    69    1
    74    29    70    1
    75    30    71    1
    76    31    72    1
    77    31    73    1
    78    31    74    1
    79    32    75    1
    80    35    76    1
    81    40    77    1
    82    40    78    1
    83    40    79    1
    84    42    80    1
    85    42    81    1
    86    42    82    1
@<TRIPOS>MOLECULE
../1EDN/PCA3_17-21.pdb
 47 48 0 0 0
SMALL
GASTEIGER

@<TRIPOS>ATOM
      1  N         -4.2370    0.0490   -1.5930 N.3    17  LEU17      -0.1231
      2  CA        -5.5250   -0.5610   -1.9200 C.3    17  LEU17       0.1693
      3  CB        -5.7360   -1.8160   -1.1010 C.3    17  LEU17       0.0284
      4  CG        -6.9950   -2.5690   -1.5730 C.3    17  LEU17       0.0019
      5  CD1       -6.7530   -3.1800   -3.0080 C.3    17  LEU17       0.0001
      6  CD2       -7.2580   -3.7400   -0.6960 C.3    17  LEU17       0.0001
      7  C         -6.6810    0.4320   -1.9250 C.2    17  LEU17       0.2592
      8  O         -7.3270    0.6200   -2.9560 O.2    17  LEU17      -0.2718
      9  N         -6.9500    1.1080   -0.7900 N.am   18  ASP18      -0.1960
     10  CA        -8.0880    2.0070   -0.5710 C.3    18  ASP18       0.1840
     11  CB        -9.1090    1.3410    0.3760 C.3    18  ASP18       0.1450
     12  CG       -10.1470    2.2990    0.9520 C.2    18  ASP18       0.3671
     13  OD1      -11.0720    2.5310    0.1500 O.co2  18  ASP18      -0.2456
     14  OD2      -10.1960    2.6850    2.1610 O.co2  18  ASP18      -0.2456
     15  C         -7.6280    3.3500    0.0060 C.2    18  ASP18       0.2622
     16  O         -7.9950    4.4650   -0.3580 O.2    18  ASP18      -0.2715
     17  N         -6.8140    3.2050    1.0390 N.am   19  ILE19      -0.1963
     18  CA        -6.1800    4.3790    1.8160 C.3    19  ILE19       0.1727
     19  CB        -5.3140    3.8890    3.0670 C.3    19  ILE19       0.0290
     20  CG2       -4.6600    5.0630    3.8540 C.3    19  ILE19       0.0023
     21  CG1       -6.1440    2.9790    3.9890 C.3    19  ILE19       0.0022
     22  CD1       -5.5170    2.2940    5.2130 C.3    19  ILE19       0.0001
     23  C         -5.2670    5.2520    0.8640 C.2    19  ILE19       0.2616
     24  O         -5.3920    6.4650    0.9090 O.2    19  ILE19      -0.2715
     25  N         -4.4890    4.6060    0.0020 N.am   20  ILE20      -0.1963
     26  CA        -3.9690    5.2910   -1.1850 C.3    20  ILE20       0.1727
     27  CB        -2.4460    5.7340   -1.0120 C.3    20  ILE20       0.0290
     28  CG2       -2.3030    7.0110   -0.1100 C.3    20  ILE20       0.0023
     29  CG1       -1.4300    4.6170   -0.6100 C.3    20  ILE20       0.0022
     30  CD1        0.0800    4.9990   -0.7110 C.3    20  ILE20       0.0001
     31  C         -4.1660    4.3690   -2.4130 C.2    20  ILE20       0.2617
     32  O         -3.9200    3.1710   -2.5010 O.2    20  ILE20      -0.2715
     33  N         -4.6410    5.0460   -3.5090 N.am   21  TRP21      -0.1938
     34  CA        -4.8980    4.4430   -4.8120 C.3    21  TRP21       0.2021
     35  CB        -6.2680    3.7450   -4.8170 C.3    21  TRP21       0.0612
     36  CG        -6.5090    2.9660   -6.0890 C.ar   21  TRP21       0.0007
     37  CD1       -7.0550    3.4090   -7.2190 C.ar   21  TRP21       0.0946
     38  NE1       -7.1560    2.4190   -8.1260 N.ar   21  TRP21      -0.2442
     39  CE2       -6.6880    1.2600   -7.6470 C.ar   21  TRP21       0.0810
     40  CZ2       -6.5320   -0.1050   -8.0600 C.ar   21  TRP21       0.0191
     41  CH2       -5.9630   -1.0770   -7.2340 C.ar   21  TRP21       0.0015
     42  CZ3       -5.4330   -0.7150   -5.9030 C.ar   21  TRP21       0.0001
     43  CE3       -5.5290    0.6400   -5.5430 C.ar   21  TRP21       0.0012
     44  CD2       -6.2440    1.5830   -6.3190 C.ar   21  TRP21       0.0152
     45  C         -4.7460    5.5030   -5.9410 C.2    21  TRP21       0.3845
     46  O         -5.6740    6.3580   -6.0770 O.co2  21  TRP21      -0.2437
     47  OXT       -3.7150    5.4030   -6.6310 O.co2  21  TRP21      -0.2437
@<TRIPOS>BOND
     1    38    39   ar
     2    38    37   ar
     3    40    39   ar
     4    40    41   ar
     5    39    44   ar
     6    41    42   ar
     7    37    36   ar
     8    47    45   ar
     9    44    36   ar
    10    44    43   ar
    11    36    35    1
    12    46    45   ar
    13    45    34    1
    14    42    43   ar
    15    35    34    1
    16    34    33    1
    17    33    31   am
    18     5     4    1
    19     8     7    2
    20    32    31    2
    21    31    26    1
    22     7     2    1
    23     7     9   am
    24     2     1    1
    25     2     3    1
    26     4     3    1
    27     4     6    1
    28    26    27    1
    29    26    25    1
    30    27    29    1
    31    27    28    1
    32     9    10    1
    33    30    29    1
    34    10    15    1
    35    10    11    1
    36    16    15    2
    37    25    23   am
    38    15    17   am
    39    13    12   ar
    40    11    12    1
    41    23    24    2
    42    23    18    1
    43    12    14   ar
    44    17    18    1
    45    18    19    1
    46    19    20    1
    47    19    21    1
    48    21    22    1
