@<TRIPOS>MOLECULE
../1EDN/PCA3_17-21_NOBACKBONE.pdb
 26 23 0 0 0
SMALL
GASTEIGER

@<TRIPOS>ATOM
      1  CB        -5.7360   -1.8160   -1.1010 C.3    17  LEU17       0.0000
      2  CG        -6.9950   -2.5690   -1.5730 C.3    17  LEU17       0.0000
      3  CD1       -6.7530   -3.1800   -3.0080 C.3    17  LEU17       0.0000
      4  CD2       -7.2580   -3.7400   -0.6960 C.3    17  LEU17       0.0000
      5  CB        -9.1090    1.3410    0.3760 C.3    18  ASP18       0.1258
      6  CG       -10.1470    2.2990    0.9520 C.2    18  ASP18       0.3654
      7  OD1      -11.0720    2.5310    0.1500 O.co2  18  ASP18      -0.2456
      8  OD2      -10.1960    2.6850    2.1610 O.co2  18  ASP18      -0.2456
      9  CB        -5.3140    3.8890    3.0670 C.3    19  ILE19       0.0000
     10  CG2       -4.6600    5.0630    3.8540 C.3    19  ILE19       0.0000
     11  CG1       -6.1440    2.9790    3.9890 C.3    19  ILE19       0.0000
     12  CD1       -5.5170    2.2940    5.2130 C.3    19  ILE19       0.0000
     13  CB        -2.4460    5.7340   -1.0120 C.3    20  ILE20       0.0000
     14  CG2       -2.3030    7.0110   -0.1100 C.3    20  ILE20       0.0000
     15  CG1       -1.4300    4.6170   -0.6100 C.3    20  ILE20       0.0000
     16  CD1        0.0800    4.9990   -0.7110 C.3    20  ILE20       0.0000
     17  CB        -6.2680    3.7450   -4.8170 C.3    21  TRP21       0.0327
     18  CG        -6.5090    2.9660   -6.0890 C.ar   21  TRP21      -0.0013
     19  CD1       -7.0550    3.4090   -7.2190 C.ar   21  TRP21       0.0946
     20  NE1       -7.1560    2.4190   -8.1260 N.ar   21  TRP21      -0.2442
     21  CE2       -6.6880    1.2600   -7.6470 C.ar   21  TRP21       0.0810
     22  CZ2       -6.5320   -0.1050   -8.0600 C.ar   21  TRP21       0.0191
     23  CH2       -5.9630   -1.0770   -7.2340 C.ar   21  TRP21       0.0015
     24  CZ3       -5.4330   -0.7150   -5.9030 C.ar   21  TRP21       0.0001
     25  CE3       -5.5290    0.6400   -5.5430 C.ar   21  TRP21       0.0012
     26  CD2       -6.2440    1.5830   -6.3190 C.ar   21  TRP21       0.0152
@<TRIPOS>BOND
     1    20    21   ar
     2    20    19   ar
     3    22    21   ar
     4    22    23   ar
     5    21    26   ar
     6    23    24   ar
     7    19    18   ar
     8    26    18   ar
     9    26    25   ar
    10    18    17    1
    11    24    25   ar
    12     3     2    1
    13     2     1    1
    14     2     4    1
    15    13    15    1
    16    13    14    1
    17    16    15    1
    18     7     6   ar
    19     5     6    1
    20     6     8   ar
    21     9    10    1
    22     9    11    1
    23    11    12    1
@<TRIPOS>MOLECULE
123882
 117 122 0 0 0
SMALL
GASTEIGER

@<TRIPOS>ATOM
      1 S           0.8903    6.9680   -0.8449 S.2     3  UNK33      -0.0993
      2 O          -6.6067    2.0837   -3.9192 O.2     1  UNK11      -0.2755
      3 O          -6.6945    6.9858    2.1703 O.2     4  LEU44      -0.2738
      4 O          -3.2213    0.1179   -1.7769 O.2     1  UNK11      -0.2737
      5 O          -5.3026    3.4020    0.5890 O.2     5  TRP55      -0.2738
      6 O          -6.3513    0.2126    0.6553 O.2     6  ASP66      -0.2738
      7 O          -2.2377    7.4749    0.7194 O.2     3  UNK33      -0.2734
      8 O          -3.8332    4.9189   -2.4770 O.2     2  ASP22      -0.2737
      9 OD1        -9.8263    3.4356    1.8252 O.co2   6  ASP66      -0.5497
     10 OD2       -11.3836    2.3067    0.5919 O.co2   6  ASP66      -0.5497
     11 OD1        -0.8204    1.6224   -4.7225 O.co2   2  ASP22      -0.5497
     12 OD2        -2.6984    1.1763   -5.9482 O.co2   2  ASP22      -0.5497
     13 N          -6.1316    0.8384   -5.7739 N.am    1  UNK11      -0.2984
     14 N          -6.6840    0.3808   -8.5526 N.pl3   1  UNK11      -0.3269
     15 N          -6.6301    1.0398   -1.4637 N.am    1  UNK11      -0.3020
     16 N          -4.9941    5.4467    2.1687 N.am    5  TRP55      -0.3022
     17 N          -3.9443    6.2528   -0.1401 N.am    4  LEU44      -0.3022
     18 N          -7.2747    2.7976    1.5851 N.am    6  ASP66      -0.3021
     19 N          -4.1261    2.0599   -2.5914 N.am    2  ASP22      -0.3021
     20 N          -1.9483    4.3787   -1.3211 N.am    3  UNK33      -0.2984
     21 NE1        -6.5897    0.7688    5.3704 N.ar    5  TRP55      -0.3604
     22 C          -5.6234   -0.3808   -6.4138 C.3     1  UNK11       0.0304
     23 C          -6.2536    1.9979   -6.6585 C.3     1  UNK11       0.0304
     24 C          -5.4987   -0.2647   -7.9447 C.3     1  UNK11       0.0280
     25 C          -7.0856    1.6628   -7.9104 C.3     1  UNK11       0.0280
     26 C          -6.2491    1.0067   -4.4102 C.2     1  UNK11       0.2179
     27 C          -5.9974   -0.2066   -3.5194 C.3     1  UNK11       0.0510
     28 C          -5.6293    0.1736   -2.0772 C.3     1  UNK11       0.1076
     29 CA         -5.0368    7.1133    0.3605 C.3     4  LEU44       0.0997
     30 CB         -6.0525    7.2747   -0.7886 C.3     4  LEU44      -0.0236
     31 CA         -5.7402    4.3327    2.7849 C.3     5  TRP55       0.1034
     32 C          -7.7392   -0.3709   -9.0705 C.ar    1  UNK11       0.0298
     33 CG         -7.2091    8.2732   -0.5945 C.3     4  LEU44      -0.0446
     34 CB         -4.8199    3.5860    3.7634 C.3     5  TRP55       0.0013
     35 C          -5.6869    6.5209    1.6408 C.2     4  LEU44       0.2340
     36 CA         -7.7973    2.1756    0.3734 C.3     6  ASP66       0.1045
     37 C          -4.2096    0.7893   -2.0712 C.2     1  UNK11       0.2344
     38 CG         -5.4604    2.5638    4.6610 C.ar    5  TRP55      -0.0201
     39 C          -6.0796    3.4703    1.5484 C.2     5  TRP55       0.2343
     40 C          -6.8395    1.0539   -0.0993 C.2     6  ASP66       0.2343
     41 CA         -2.8669    2.7214   -2.9112 C.3     2  ASP22       0.1045
     42 CD2        -6.7310    9.6709   -0.2073 C.3     4  LEU44      -0.0626
     43 CD1        -8.0352    8.3503   -1.8849 C.3     4  LEU44      -0.0626
     44 C          -1.6314    5.7598   -0.9556 C.3     3  UNK33       0.1311
     45 C          -7.9507   -1.7216   -8.7651 C.ar    1  UNK11      -0.0407
     46 C          -8.6567    0.2318   -9.9503 C.ar    1  UNK11      -0.0407
     47 CD2        -5.3334    2.4594    6.0912 C.ar    5  TRP55       0.0029
     48 C          -2.6052    6.5401    0.0043 C.2     3  UNK33       0.2390
     49 CB         -9.1636    1.5352    0.5943 C.3     6  ASP66       0.0138
     50 CD1        -6.1949    1.4646    4.2638 C.ar    5  TRP55       0.0060
     51 CE2        -6.0391    1.3246    6.4987 C.ar    5  TRP55       0.0467
     52 C          -2.9379    4.1050   -2.2399 C.2     2  ASP22       0.2345
     53 CB         -2.7247    2.9574   -4.4107 C.3     2  ASP22       0.0138
     54 C          -9.0425   -2.4291   -9.2854 C.ar    1  UNK11      -0.0600
     55 C          -9.7435   -0.4693  -10.4825 C.ar    1  UNK11      -0.0600
     56 C          -0.2398    5.7678   -0.3544 C.ar    3  UNK33       0.0189
     57 CE3        -4.6585    3.2079    7.0798 C.ar    5  TRP55      -0.0523
     58 C          -9.9401   -1.8023  -10.1434 C.ar    1  UNK11      -0.0616
     59 CZ2        -6.1073    0.9035    7.8326 C.ar    5  TRP55      -0.0378
     60 CG        -10.2230    2.5310    1.0350 C.2     6  ASP66       0.0440
     61 CZ3        -4.7054    2.7943    8.4183 C.ar    5  TRP55      -0.0611
     62 C           0.3184    4.9122    0.5806 C.ar    3  UNK33      -0.0493
     63 CH2        -5.4201    1.6575    8.7866 C.ar    5  TRP55      -0.0598
     64 CG         -2.0243    1.7876   -5.0720 C.2     2  ASP22       0.0440
     65 C           1.6701    5.2441    0.8869 C.ar    3  UNK33      -0.0544
     66 C           2.0991    6.3513    0.1921 C.ar    3  UNK33      -0.0240
     67 H          -6.9012    1.8638   -1.9965 H       1  UNK11       0.1495
     68 H          -4.2717    5.1214    1.5286 H       5  TRP55       0.1495
     69 H          -4.2019    5.5273   -0.8141 H       4  LEU44       0.1495
     70 H          -8.0229    3.2402    2.1348 H       6  ASP66       0.1495
     71 H          -4.9822    2.5564   -2.8286 H       2  ASP22       0.1495
     72 H          -1.1759    3.7220   -1.3335 H       3  UNK33       0.1498
     73 HE1        -7.1635   -0.0619    5.3483 H       5  TRP55       0.1653
     74 H          -6.3098   -1.1915   -6.1460 H       1  UNK11       0.0480
     75 H          -4.6441   -0.6259   -5.9918 H       1  UNK11       0.0480
     76 H          -5.2386    2.3027   -6.9404 H       1  UNK11       0.0480
     77 H          -6.7074    2.8484   -6.1394 H       1  UNK11       0.0480
     78 H          -4.6289    0.3611   -8.1834 H       1  UNK11       0.0479
     79 H          -5.2816   -1.2401   -8.3949 H       1  UNK11       0.0479
     80 H          -8.1370    1.6156   -7.5953 H       1  UNK11       0.0479
     81 H          -6.9922    2.4769   -8.6381 H       1  UNK11       0.0479
     82 H          -5.1936   -0.8259   -3.9260 H       1  UNK11       0.0381
     83 H          -6.9198   -0.7997   -3.5211 H       1  UNK11       0.0381
     84 H          -5.5709   -0.7455   -1.4806 H       1  UNK11       0.0599
     85 HA         -4.6063    8.0809    0.6362 H       4  LEU44       0.0594
     86 HB1        -6.4854    6.2895   -1.0147 H       4  LEU44       0.0290
     87 HB2        -5.4977    7.5677   -1.6921 H       4  LEU44       0.0290
     88 HA         -6.6522    4.7066    3.2617 H       5  TRP55       0.0598
     89 HG         -7.8766    7.9051    0.1920 H       4  LEU44       0.0296
     90 HB1        -4.3260    4.3354    4.3964 H       5  TRP55       0.0337
     91 HB2        -4.0110    3.0889    3.2108 H       5  TRP55       0.0337
     92 HA         -7.8593    2.9610   -0.3902 H       6  ASP66       0.0598
     93 HA         -2.0330    2.1460   -2.4967 H       2  ASP22       0.0598
     94 HD21       -6.0144   10.0624   -0.9370 H       4  LEU44       0.0232
     95 HD22       -6.2537    9.6690    0.7770 H       4  LEU44       0.0232
     96 HD23       -7.5749   10.3677   -0.1557 H       4  LEU44       0.0232
     97 HD11       -7.4393    8.7432   -2.7163 H       4  LEU44       0.0232
     98 HD12       -8.9035    9.0046   -1.7539 H       4  LEU44       0.0232
     99 HD13       -8.4046    7.3600   -2.1723 H       4  LEU44       0.0232
    100 H          -1.6337    6.3319   -1.8939 H       3  UNK33       0.0651
    101 H          -7.2901   -2.2474   -8.0838 H       1  UNK11       0.0636
    102 H          -8.5151    1.2697  -10.2416 H       1  UNK11       0.0636
    103 HB1        -9.1042    0.7576    1.3667 H       6  ASP66       0.0348
    104 HB2        -9.4924    1.0420   -0.3293 H       6  ASP66       0.0348
    105 HD1        -6.4798    1.1070    3.2825 H       5  TRP55       0.0810
    106 HB1        -2.0978    3.8389   -4.6044 H       2  ASP22       0.0348
    107 HB2        -3.6933    3.1536   -4.8854 H       2  ASP22       0.0348
    108 H          -9.1906   -3.4685   -9.0063 H       1  UNK11       0.0618
    109 H         -10.4306    0.0325  -11.1570 H       1  UNK11       0.0618
    110 HE3        -4.0936    4.0933    6.8055 H       5  TRP55       0.0624
    111 H         -10.7883   -2.3496  -10.5431 H       1  UNK11       0.0618
    112 HZ2        -6.6638    0.0164    8.1149 H       5  TRP55       0.0638
    113 HZ3        -4.1745    3.3673    9.1733 H       5  TRP55       0.0618
    114 H          -0.2186    4.0792    1.0213 H       3  UNK33       0.0626
    115 HH2        -5.4441    1.3489    9.8283 H       5  TRP55       0.0618
    116 H           2.2921    4.6995    1.5858 H       3  UNK33       0.0623
    117 H           3.0676    6.8285    0.2369 H       3  UNK33       0.0693
@<TRIPOS>BOND
     1     1    56   ar
     2     1    66   ar
     3     2    26    2
     4     3    35    2
     5     4    37    2
     6     5    39    2
     7     6    40    2
     8     7    48    2
     9     8    52    2
    10     9    60   ar
    11    10    60   ar
    12    11    64   ar
    13    12    64   ar
    14    13    22    1
    15    13    23    1
    16    14    24    1
    17    14    25    1
    18    14    32    1
    19    15    28    1
    20    15    40   am
    21    16    35   am
    22    16    31    1
    23    17    48   am
    24    17    29    1
    25    18    39   am
    26    18    36    1
    27    19    37   am
    28    19    41    1
    29    20    52   am
    30    20    44    1
    31    21    50   ar
    32    21    51   ar
    33    22    24    1
    34    23    25    1
    35    26    27    1
    36    26    13   am
    37    28    37    1
    38    28    27    1
    39    29    35    1
    40    29    30    1
    41    30    33    1
    42    31    39    1
    43    31    34    1
    44    32    45   ar
    45    32    46   ar
    46    33    43    1
    47    33    42    1
    48    34    38    1
    49    36    40    1
    50    36    49    1
    51    38    47   ar
    52    38    50   ar
    53    41    52    1
    54    41    53    1
    55    44    48    1
    56    44    56    1
    57    45    54   ar
    58    46    55   ar
    59    47    57   ar
    60    47    51   ar
    61    49    60    1
    62    51    59   ar
    63    53    64    1
    64    54    58   ar
    65    55    58   ar
    66    56    62   ar
    67    57    61   ar
    68    59    63   ar
    69    61    63   ar
    70    62    65   ar
    71    65    66   ar
    72    15    67    1
    73    16    68    1
    74    17    69    1
    75    18    70    1
    76    19    71    1
    77    20    72    1
    78    21    73    1
    79    22    74    1
    80    22    75    1
    81    23    76    1
    82    23    77    1
    83    24    78    1
    84    24    79    1
    85    25    80    1
    86    25    81    1
    87    27    82    1
    88    27    83    1
    89    28    84    1
    90    29    85    1
    91    30    86    1
    92    30    87    1
    93    31    88    1
    94    33    89    1
    95    34    90    1
    96    34    91    1
    97    36    92    1
    98    41    93    1
    99    42    94    1
   100    42    95    1
   101    42    96    1
   102    43    97    1
   103    43    98    1
   104    43    99    1
   105    44   100    1
   106    45   101    1
   107    46   102    1
   108    49   103    1
   109    49   104    1
   110    50   105    1
   111    53   106    1
   112    53   107    1
   113    54   108    1
   114    55   109    1
   115    57   110    1
   116    58   111    1
   117    59   112    1
   118    61   113    1
   119    62   114    1
   120    63   115    1
   121    65   116    1
   122    66   117    1
@<TRIPOS>MOLECULE
../1EDN/PCA3_17-21.pdb
 47 48 0 0 0
SMALL
GASTEIGER

@<TRIPOS>ATOM
      1  N         -4.2370    0.0490   -1.5930 N.3    17  LEU17      -0.1231
      2  CA        -5.5250   -0.5610   -1.9200 C.3    17  LEU17       0.1693
      3  CB        -5.7360   -1.8160   -1.1010 C.3    17  LEU17       0.0284
      4  CG        -6.9950   -2.5690   -1.5730 C.3    17  LEU17       0.0019
      5  CD1       -6.7530   -3.1800   -3.0080 C.3    17  LEU17       0.0001
      6  CD2       -7.2580   -3.7400   -0.6960 C.3    17  LEU17       0.0001
      7  C         -6.6810    0.4320   -1.9250 C.2    17  LEU17       0.2592
      8  O         -7.3270    0.6200   -2.9560 O.2    17  LEU17      -0.2718
      9  N         -6.9500    1.1080   -0.7900 N.am   18  ASP18      -0.1960
     10  CA        -8.0880    2.0070   -0.5710 C.3    18  ASP18       0.1840
     11  CB        -9.1090    1.3410    0.3760 C.3    18  ASP18       0.1450
     12  CG       -10.1470    2.2990    0.9520 C.2    18  ASP18       0.3671
     13  OD1      -11.0720    2.5310    0.1500 O.co2  18  ASP18      -0.2456
     14  OD2      -10.1960    2.6850    2.1610 O.co2  18  ASP18      -0.2456
     15  C         -7.6280    3.3500    0.0060 C.2    18  ASP18       0.2622
     16  O         -7.9950    4.4650   -0.3580 O.2    18  ASP18      -0.2715
     17  N         -6.8140    3.2050    1.0390 N.am   19  ILE19      -0.1963
     18  CA        -6.1800    4.3790    1.8160 C.3    19  ILE19       0.1727
     19  CB        -5.3140    3.8890    3.0670 C.3    19  ILE19       0.0290
     20  CG2       -4.6600    5.0630    3.8540 C.3    19  ILE19       0.0023
     21  CG1       -6.1440    2.9790    3.9890 C.3    19  ILE19       0.0022
     22  CD1       -5.5170    2.2940    5.2130 C.3    19  ILE19       0.0001
     23  C         -5.2670    5.2520    0.8640 C.2    19  ILE19       0.2616
     24  O         -5.3920    6.4650    0.9090 O.2    19  ILE19      -0.2715
     25  N         -4.4890    4.6060    0.0020 N.am   20  ILE20      -0.1963
     26  CA        -3.9690    5.2910   -1.1850 C.3    20  ILE20       0.1727
     27  CB        -2.4460    5.7340   -1.0120 C.3    20  ILE20       0.0290
     28  CG2       -2.3030    7.0110   -0.1100 C.3    20  ILE20       0.0023
     29  CG1       -1.4300    4.6170   -0.6100 C.3    20  ILE20       0.0022
     30  CD1        0.0800    4.9990   -0.7110 C.3    20  ILE20       0.0001
     31  C         -4.1660    4.3690   -2.4130 C.2    20  ILE20       0.2617
     32  O         -3.9200    3.1710   -2.5010 O.2    20  ILE20      -0.2715
     33  N         -4.6410    5.0460   -3.5090 N.am   21  TRP21      -0.1938
     34  CA        -4.8980    4.4430   -4.8120 C.3    21  TRP21       0.2021
     35  CB        -6.2680    3.7450   -4.8170 C.3    21  TRP21       0.0612
     36  CG        -6.5090    2.9660   -6.0890 C.ar   21  TRP21       0.0007
     37  CD1       -7.0550    3.4090   -7.2190 C.ar   21  TRP21       0.0946
     38  NE1       -7.1560    2.4190   -8.1260 N.ar   21  TRP21      -0.2442
     39  CE2       -6.6880    1.2600   -7.6470 C.ar   21  TRP21       0.0810
     40  CZ2       -6.5320   -0.1050   -8.0600 C.ar   21  TRP21       0.0191
     41  CH2       -5.9630   -1.0770   -7.2340 C.ar   21  TRP21       0.0015
     42  CZ3       -5.4330   -0.7150   -5.9030 C.ar   21  TRP21       0.0001
     43  CE3       -5.5290    0.6400   -5.5430 C.ar   21  TRP21       0.0012
     44  CD2       -6.2440    1.5830   -6.3190 C.ar   21  TRP21       0.0152
     45  C         -4.7460    5.5030   -5.9410 C.2    21  TRP21       0.3845
     46  O         -5.6740    6.3580   -6.0770 O.co2  21  TRP21      -0.2437
     47  OXT       -3.7150    5.4030   -6.6310 O.co2  21  TRP21      -0.2437
@<TRIPOS>BOND
     1    38    39   ar
     2    38    37   ar
     3    40    39   ar
     4    40    41   ar
     5    39    44   ar
     6    41    42   ar
     7    37    36   ar
     8    47    45   ar
     9    44    36   ar
    10    44    43   ar
    11    36    35    1
    12    46    45   ar
    13    45    34    1
    14    42    43   ar
    15    35    34    1
    16    34    33    1
    17    33    31   am
    18     5     4    1
    19     8     7    2
    20    32    31    2
    21    31    26    1
    22     7     2    1
    23     7     9   am
    24     2     1    1
    25     2     3    1
    26     4     3    1
    27     4     6    1
    28    26    27    1
    29    26    25    1
    30    27    29    1
    31    27    28    1
    32     9    10    1
    33    30    29    1
    34    10    15    1
    35    10    11    1
    36    16    15    2
    37    25    23   am
    38    15    17   am
    39    13    12   ar
    40    11    12    1
    41    23    24    2
    42    23    18    1
    43    12    14   ar
    44    17    18    1
    45    18    19    1
    46    19    20    1
    47    19    21    1
    48    21    22    1
