@<TRIPOS>MOLECULE
../1EDN/XRAY_17-21_NOBACKBONE.pdb
 26 23 0 0 0
SMALL
GASTEIGER

@<TRIPOS>ATOM
      1  CB         5.6570  -21.0170   -0.8850 C.3    17  LEU17       0.0000
      2  CG         5.4050  -22.5400   -0.8470 C.3    17  LEU17       0.0000
      3  CD1        6.1110  -23.2140    0.3150 C.3    17  LEU17       0.0000
      4  CD2        3.9240  -22.7940   -0.7690 C.3    17  LEU17       0.0000
      5  CB         3.8720  -17.2370    1.5730 C.3    18  ASP18       0.0476
      6  CG         2.4440  -17.7210    1.8880 C.2    18  ASP18       0.0507
      7  OD1        1.8320  -18.4410    1.0660 O.co2  18  ASP18      -0.5492
      8  OD2        1.9260  -17.3730    2.9700 O.co2  18  ASP18      -0.5492
      9  CB         7.9140  -14.3690   -1.8400 C.3    19  ILE19       0.0000
     10  CG1        8.8760  -14.8240   -0.7490 C.3    19  ILE19       0.0000
     11  CG2        8.2810  -12.9320   -2.2380 C.3    19  ILE19       0.0000
     12  CD1        9.3280  -13.7050    0.1860 C.3    19  ILE19       0.0000
     13  CB         5.8140  -13.8870   -5.9550 C.3    20  ILE20       0.0000
     14  CG1        5.9530  -12.3980   -5.6400 C.3    20  ILE20       0.0000
     15  CG2        5.1640  -14.0490   -7.3150 C.3    20  ILE20       0.0000
     16  CD1        6.8340  -11.6390   -6.6010 C.3    20  ILE20       0.0000
     17  CB         2.6690  -18.5180   -5.3120 C.3    21  TRP21       0.0327
     18  CG         1.5690  -17.9980   -4.3600 C.ar   21  TRP21      -0.0013
     19  CD1        0.7990  -18.7930   -3.5490 C.ar   21  TRP21       0.0946
     20  CD2        1.2480  -16.6350   -3.9890 C.ar   21  TRP21       0.0152
     21  CE2        0.3020  -16.7070   -2.9250 C.ar   21  TRP21       0.0810
     22  CE3        1.6680  -15.3700   -4.4360 C.ar   21  TRP21       0.0012
     23  NE1        0.0520  -18.0350   -2.6840 N.ar   21  TRP21      -0.2442
     24  CZ2       -0.2230  -15.5590   -2.2950 C.ar   21  TRP21       0.0191
     25  CZ3        1.1420  -14.2140   -3.8060 C.ar   21  TRP21       0.0001
     26  CH2        0.2070  -14.3240   -2.7450 C.ar   21  TRP21       0.0015
@<TRIPOS>BOND
     1    15    13    1
     2    16    14    1
     3    13    14    1
     4    17    18    1
     5    22    20   ar
     6    22    25   ar
     7    18    20   ar
     8    18    19   ar
     9    20    21   ar
    10    25    26   ar
    11    19    23   ar
    12    21    23   ar
    13    21    24   ar
    14    26    24   ar
    15    11     9    1
    16     9    10    1
    17     1     2    1
    18     2     4    1
    19     2     3    1
    20    10    12    1
    21     7     6   ar
    22     5     6    1
    23     6     8   ar
@<TRIPOS>MOLECULE
16219006
 85 88 0 0 0
SMALL
GASTEIGER

@<TRIPOS>ATOM
      1 O           2.1864  -13.1352   -3.7466 O.2     1  PRO11      -0.2738
      2 O           2.8676  -17.3167   -4.2370 O.2     5  ASP55      -0.2735
      3 O           6.0785  -15.9272   -4.2094 O.2     2  VAL22      -0.2738
      4 O           1.7714  -17.8627    0.4890 O.2     4  TRP44      -0.2738
      5 O           4.5792  -14.7838    0.0510 O.2     3  LEU33      -0.2738
      6 OD1        -0.2073  -19.2379   -3.8957 O.co2   5  ASP55      -0.5497
      7 OD2         0.8760  -21.1031   -4.6323 O.co2   5  ASP55      -0.5497
      8 N           1.1115  -16.2031   -3.3351 N.am    1  PRO11      -0.2884
      9 N           3.4213  -14.7049   -4.8640 N.am    2  VAL22      -0.3022
     10 N           2.9449  -18.1852   -1.4575 N.am    5  ASP55      -0.3021
     11 N           5.7152  -14.3982   -2.5472 N.am    3  LEU33      -0.3025
     12 N           5.1853  -16.9707   -0.3057 N.am    4  TRP44      -0.3022
     13 NE1         5.9751  -21.2750   -1.1275 N.ar    4  TRP44      -0.3604
     14 CA          1.0692  -15.2175   -4.4128 C.3     1  PRO11       0.1023
     15 CB         -0.2869  -14.5269   -4.2450 C.3     1  PRO11      -0.0243
     16 CG         -0.5974  -14.6991   -2.7630 C.3     1  PRO11      -0.0350
     17 CD         -0.0423  -16.0812   -2.4613 C.3     1  PRO11       0.0156
     18 C           2.2537  -14.2312   -4.2999 C.2     1  PRO11       0.2342
     19 C           1.9291  -17.3115   -3.4260 C.2     5  ASP55       0.2369
     20 CA          4.6897  -13.9972   -4.7428 C.3     2  VAL22       0.1017
     21 CA          1.7985  -18.4182   -2.3495 C.3     5  ASP55       0.1047
     22 CB          5.3593  -13.7888   -6.1190 C.3     2  VAL22      -0.0197
     23 CA          6.3640  -15.2154   -1.5343 C.3     3  LEU33       0.0996
     24 C           5.5717  -14.8708   -3.8335 C.2     2  VAL22       0.2342
     25 CB          1.9085  -19.7988   -2.9753 C.3     5  ASP55       0.0138
     26 CA          4.1695  -17.5443    0.5847 C.3     4  TRP44       0.1034
     27 CB          7.4887  -14.4562   -0.8200 C.3     3  LEU33      -0.0236
     28 CG          8.6858  -14.0868   -1.7220 C.3     3  LEU33      -0.0446
     29 C           2.8318  -17.8315   -0.1341 C.2     4  TRP44       0.2343
     30 CB          4.7002  -18.7982    1.2997 C.3     4  TRP44       0.0013
     31 C           5.2812  -15.6152   -0.5192 C.2     3  LEU33       0.2340
     32 CG1         6.7252  -13.1046   -5.9712 C.3     2  VAL22      -0.0605
     33 CG2         4.4757  -12.9405   -7.0406 C.3     2  VAL22      -0.0605
     34 CG          5.0186  -19.9611    0.4014 C.ar    4  TRP44      -0.0201
     35 CG          0.7461  -20.0646   -3.9240 C.2     5  ASP55       0.0440
     36 CD1         9.7254  -13.3132   -0.9063 C.3     3  LEU33      -0.0626
     37 CD2         9.3473  -15.3105   -2.3597 C.3     3  LEU33      -0.0626
     38 CD2         4.2437  -21.1602    0.2676 C.ar    4  TRP44       0.0029
     39 CD1         6.1069  -20.0964   -0.4419 C.ar    4  TRP44       0.0060
     40 CE2         4.8677  -21.9590   -0.6896 C.ar    4  TRP44       0.0467
     41 CE3         3.0572  -21.6340    0.8646 C.ar    4  TRP44      -0.0523
     42 CZ2         4.3660  -23.2050   -1.0831 C.ar    4  TRP44      -0.0378
     43 CZ3         2.5478  -22.8831    0.4922 C.ar    4  TRP44      -0.0611
     44 CH2         3.1941  -23.6546   -0.4695 C.ar    4  TRP44      -0.0598
     45 H           3.4612  -15.7243   -4.9875 H       2  VAL22       0.1495
     46 H           3.8373  -18.1133   -1.9229 H       5  ASP55       0.1495
     47 H           5.0264  -13.7259   -2.2154 H       3  LEU33       0.1495
     48 H           5.6038  -17.5924   -0.9854 H       4  TRP44       0.1495
     49 HE1         6.5978  -21.6076   -1.8505 H       4  TRP44       0.1653
     50 HA          1.1226  -15.7168   -5.3882 H       1  PRO11       0.0597
     51 HB1        -1.0439  -15.0593   -4.8348 H       1  PRO11       0.0288
     52 HB2        -0.2951  -13.4784   -4.5566 H       1  PRO11       0.0288
     53 HG1        -1.6645  -14.6163   -2.5392 H       1  PRO11       0.0281
     54 HG2        -0.0638  -13.9408   -2.1781 H       1  PRO11       0.0281
     55 HD1         0.2490  -16.1917   -1.4137 H       1  PRO11       0.0465
     56 HD2        -0.7653  -16.8602   -2.7235 H       1  PRO11       0.0465
     57 HA          4.5311  -13.0227   -4.2663 H       2  VAL22       0.0597
     58 HA          0.8736  -18.3308   -1.7761 H       5  ASP55       0.0598
     59 HB          5.5169  -14.7612   -6.6038 H       2  VAL22       0.0318
     60 HA          6.7674  -16.1279   -1.9829 H       3  LEU33       0.0594
     61 HB1         1.8988  -20.5685   -2.1942 H       5  ASP55       0.0348
     62 HB2         2.8499  -19.9098   -3.5279 H       5  ASP55       0.0348
     63 HA          3.9448  -16.7868    1.3467 H       4  TRP44       0.0598
     64 HB1         7.8464  -15.0626    0.0231 H       3  LEU33       0.0290
     65 HB2         7.0824  -13.5354   -0.3794 H       3  LEU33       0.0290
     66 HG          8.3363  -13.4283   -2.5268 H       3  LEU33       0.0296
     67 HB1         3.9686  -19.1134    2.0538 H       4  TRP44       0.0337
     68 HB2         5.6124  -18.5358    1.8523 H       4  TRP44       0.0337
     69 HG11        6.6322  -12.1418   -5.4571 H       2  VAL22       0.0233
     70 HG12        7.1771  -12.9217   -6.9520 H       2  VAL22       0.0233
     71 HG13        7.4258  -13.7248   -5.4031 H       2  VAL22       0.0233
     72 HG21        4.2635  -11.9624   -6.5951 H       2  VAL22       0.0233
     73 HG22        3.5216  -13.4363   -7.2446 H       2  VAL22       0.0233
     74 HG23        4.9696  -12.7718   -8.0037 H       2  VAL22       0.0233
     75 HD11       10.1270  -13.9261   -0.0918 H       3  LEU33       0.0232
     76 HD12        9.2857  -12.4112   -0.4685 H       3  LEU33       0.0232
     77 HD13       10.5636  -13.0019   -1.5391 H       3  LEU33       0.0232
     78 HD21        9.6258  -16.0515   -1.6029 H       3  LEU33       0.0232
     79 HD22       10.2545  -15.0243   -2.9029 H       3  LEU33       0.0232
     80 HD23        8.6834  -15.7934   -3.0823 H       3  LEU33       0.0232
     81 HD1         6.9507  -19.4491   -0.6368 H       4  TRP44       0.0810
     82 HE3         2.5250  -21.0313    1.5946 H       4  TRP44       0.0624
     83 HZ2         4.8508  -23.7967   -1.8521 H       4  TRP44       0.0638
     84 HZ3         1.6247  -23.2402    0.9410 H       4  TRP44       0.0618
     85 HH2         2.7674  -24.6093   -0.7669 H       4  TRP44       0.0618
@<TRIPOS>BOND
     1     1    18    2
     2     2    19    2
     3     3    24    2
     4     4    29    2
     5     5    31    2
     6     6    35   ar
     7     7    35   ar
     8     8    14    1
     9     8    17    1
    10     8    19   am
    11     9    18   am
    12     9    20    1
    13    10    21    1
    14    10    29   am
    15    11    23    1
    16    11    24   am
    17    12    26    1
    18    12    31   am
    19    13    39   ar
    20    13    40   ar
    21    14    15    1
    22    14    18    1
    23    15    16    1
    24    16    17    1
    25    19    21    1
    26    20    22    1
    27    20    24    1
    28    21    25    1
    29    22    32    1
    30    22    33    1
    31    23    27    1
    32    23    31    1
    33    25    35    1
    34    26    29    1
    35    26    30    1
    36    27    28    1
    37    28    36    1
    38    28    37    1
    39    30    34    1
    40    34    38   ar
    41    34    39   ar
    42    38    40   ar
    43    38    41   ar
    44    40    42   ar
    45    41    43   ar
    46    42    44   ar
    47    43    44   ar
    48     9    45    1
    49    10    46    1
    50    11    47    1
    51    12    48    1
    52    13    49    1
    53    14    50    1
    54    15    51    1
    55    15    52    1
    56    16    53    1
    57    16    54    1
    58    17    55    1
    59    17    56    1
    60    20    57    1
    61    21    58    1
    62    22    59    1
    63    23    60    1
    64    25    61    1
    65    25    62    1
    66    26    63    1
    67    27    64    1
    68    27    65    1
    69    28    66    1
    70    30    67    1
    71    30    68    1
    72    32    69    1
    73    32    70    1
    74    32    71    1
    75    33    72    1
    76    33    73    1
    77    33    74    1
    78    36    75    1
    79    36    76    1
    80    36    77    1
    81    37    78    1
    82    37    79    1
    83    37    80    1
    84    39    81    1
    85    41    82    1
    86    42    83    1
    87    43    84    1
    88    44    85    1
@<TRIPOS>MOLECULE
../1EDN/XRAY_17-21.pdb
 47 48 0 0 0
SMALL
GASTEIGER

@<TRIPOS>ATOM
      1  N          6.4500  -19.7300   -2.8460 N.3    17  LEU17      -0.1231
      2  CA         5.2640  -20.1680   -2.1160 C.3    17  LEU17       0.1693
      3  C          4.7010  -18.8060   -1.6720 C.2    17  LEU17       0.2592
      4  O          4.3760  -17.9800   -2.5270 O.2    17  LEU17      -0.2718
      5  CB         5.6570  -21.0170   -0.8850 C.3    17  LEU17       0.0284
      6  CG         5.4050  -22.5400   -0.8470 C.3    17  LEU17       0.0019
      7  CD1        6.1110  -23.2140    0.3150 C.3    17  LEU17       0.0001
      8  CD2        3.9240  -22.7940   -0.7690 C.3    17  LEU17       0.0001
      9  N          4.7270  -18.4910   -0.3800 N.am   18  ASP18      -0.1962
     10  CA         4.1720  -17.2010    0.0630 C.3    18  ASP18       0.1783
     11  C          4.7750  -15.8130   -0.3500 C.2    18  ASP18       0.2620
     12  O          4.1570  -14.7710   -0.0750 O.2    18  ASP18      -0.2715
     13  CB         3.8720  -17.2370    1.5730 C.3    18  ASP18       0.0728
     14  CG         2.4440  -17.7210    1.8880 C.2    18  ASP18       0.0526
     15  OD1        1.8320  -18.4410    1.0660 O.co2  18  ASP18      -0.5491
     16  OD2        1.9260  -17.3730    2.9700 O.co2  18  ASP18      -0.5491
     17  N          5.9570  -15.7420   -0.9630 N.am   19  ILE19      -0.1963
     18  CA         6.4450  -14.4030   -1.3510 C.3    19  ILE19       0.1727
     19  C          5.5760  -13.9960   -2.5290 C.2    19  ILE19       0.2616
     20  O          4.8370  -13.0080   -2.4770 O.2    19  ILE19      -0.2715
     21  CB         7.9140  -14.3690   -1.8400 C.3    19  ILE19       0.0290
     22  CG1        8.8760  -14.8240   -0.7490 C.3    19  ILE19       0.0022
     23  CG2        8.2810  -12.9320   -2.2380 C.3    19  ILE19       0.0023
     24  CD1        9.3280  -13.7050    0.1860 C.3    19  ILE19       0.0001
     25  N          5.7170  -14.7750   -3.5990 N.am   20  ILE20      -0.1963
     26  CA         4.9770  -14.6140   -4.8450 C.3    20  ILE20       0.1727
     27  C          4.7560  -16.0550   -5.2510 C.2    20  ILE20       0.2615
     28  O          5.5820  -16.9240   -4.9410 O.2    20  ILE20      -0.2715
     29  CB         5.8140  -13.8870   -5.9550 C.3    20  ILE20       0.0290
     30  CG1        5.9530  -12.3980   -5.6400 C.3    20  ILE20       0.0022
     31  CG2        5.1640  -14.0490   -7.3150 C.3    20  ILE20       0.0023
     32  CD1        6.8340  -11.6390   -6.6010 C.3    20  ILE20       0.0001
     33  N          3.6520  -16.3070   -5.9350 N.am   21  TRP21      -0.1988
     34  CA         3.3300  -17.6370   -6.4010 C.3    21  TRP21       0.1456
     35  C          2.5650  -17.6270   -7.7180 C.2    21  TRP21       0.1166
     36  O          1.8980  -18.6320   -8.0750 O.co2  21  TRP21      -0.3065
     37  CB         2.6690  -18.5180   -5.3120 C.3    21  TRP21       0.0562
     38  CG         1.5690  -17.9980   -4.3600 C.ar   21  TRP21       0.0005
     39  CD1        0.7990  -18.7930   -3.5490 C.ar   21  TRP21       0.0946
     40  CD2        1.2480  -16.6350   -3.9890 C.ar   21  TRP21       0.0152
     41  CE2        0.3020  -16.7070   -2.9250 C.ar   21  TRP21       0.0810
     42  CE3        1.6680  -15.3700   -4.4360 C.ar   21  TRP21       0.0012
     43  NE1        0.0520  -18.0350   -2.6840 N.ar   21  TRP21      -0.2442
     44  CZ2       -0.2230  -15.5590   -2.2950 C.ar   21  TRP21       0.0191
     45  CZ3        1.1420  -14.2140   -3.8060 C.ar   21  TRP21       0.0001
     46  CH2        0.2070  -14.3240   -2.7450 C.ar   21  TRP21       0.0015
     47  OXT        2.7400  -16.6140   -8.4280 O.co2  21  TRP21      -0.8460
@<TRIPOS>BOND
     1    47    35   ar
     2    36    35   ar
     3    35    34    1
     4    31    29    1
     5    32    30    1
     6    34    33    1
     7    34    37    1
     8    29    30    1
     9    29    26    1
    10    33    27   am
    11    37    38    1
    12    27    28    2
    13    27    26    1
    14    26    25    1
    15    42    40   ar
    16    42    45   ar
    17    38    40   ar
    18    38    39   ar
    19    40    41   ar
    20    45    46   ar
    21    25    19   am
    22    39    43   ar
    23    41    43   ar
    24    41    44   ar
    25     1     2    1
    26    46    44   ar
    27    19    20    2
    28    19    18    1
    29     4     3    2
    30    23    21    1
    31     2     3    1
    32     2     5    1
    33    21    18    1
    34    21    22    1
    35     3     9   am
    36    18    17    1
    37    17    11   am
    38     5     6    1
    39     6     8    1
    40     6     7    1
    41    22    24    1
    42     9    10    1
    43    11    12    2
    44    11    10    1
    45    10    13    1
    46    15    14   ar
    47    13    14    1
    48    14    16   ar
