@<TRIPOS>MOLECULE
../1EDN/XRAY_17-21_NOBACKBONE.pdb
 26 23 0 0 0
SMALL
GASTEIGER

@<TRIPOS>ATOM
      1  CB         5.6570  -21.0170   -0.8850 C.3    17  LEU17       0.0000
      2  CG         5.4050  -22.5400   -0.8470 C.3    17  LEU17       0.0000
      3  CD1        6.1110  -23.2140    0.3150 C.3    17  LEU17       0.0000
      4  CD2        3.9240  -22.7940   -0.7690 C.3    17  LEU17       0.0000
      5  CB         3.8720  -17.2370    1.5730 C.3    18  ASP18       0.0476
      6  CG         2.4440  -17.7210    1.8880 C.2    18  ASP18       0.0507
      7  OD1        1.8320  -18.4410    1.0660 O.co2  18  ASP18      -0.5492
      8  OD2        1.9260  -17.3730    2.9700 O.co2  18  ASP18      -0.5492
      9  CB         7.9140  -14.3690   -1.8400 C.3    19  ILE19       0.0000
     10  CG1        8.8760  -14.8240   -0.7490 C.3    19  ILE19       0.0000
     11  CG2        8.2810  -12.9320   -2.2380 C.3    19  ILE19       0.0000
     12  CD1        9.3280  -13.7050    0.1860 C.3    19  ILE19       0.0000
     13  CB         5.8140  -13.8870   -5.9550 C.3    20  ILE20       0.0000
     14  CG1        5.9530  -12.3980   -5.6400 C.3    20  ILE20       0.0000
     15  CG2        5.1640  -14.0490   -7.3150 C.3    20  ILE20       0.0000
     16  CD1        6.8340  -11.6390   -6.6010 C.3    20  ILE20       0.0000
     17  CB         2.6690  -18.5180   -5.3120 C.3    21  TRP21       0.0327
     18  CG         1.5690  -17.9980   -4.3600 C.ar   21  TRP21      -0.0013
     19  CD1        0.7990  -18.7930   -3.5490 C.ar   21  TRP21       0.0946
     20  CD2        1.2480  -16.6350   -3.9890 C.ar   21  TRP21       0.0152
     21  CE2        0.3020  -16.7070   -2.9250 C.ar   21  TRP21       0.0810
     22  CE3        1.6680  -15.3700   -4.4360 C.ar   21  TRP21       0.0012
     23  NE1        0.0520  -18.0350   -2.6840 N.ar   21  TRP21      -0.2442
     24  CZ2       -0.2230  -15.5590   -2.2950 C.ar   21  TRP21       0.0191
     25  CZ3        1.1420  -14.2140   -3.8060 C.ar   21  TRP21       0.0001
     26  CH2        0.2070  -14.3240   -2.7450 C.ar   21  TRP21       0.0015
@<TRIPOS>BOND
     1    15    13    1
     2    16    14    1
     3    13    14    1
     4    17    18    1
     5    22    20   ar
     6    22    25   ar
     7    18    20   ar
     8    18    19   ar
     9    20    21   ar
    10    25    26   ar
    11    19    23   ar
    12    21    23   ar
    13    21    24   ar
    14    26    24   ar
    15    11     9    1
    16     9    10    1
    17     1     2    1
    18     2     4    1
    19     2     3    1
    20    10    12    1
    21     7     6   ar
    22     5     6    1
    23     6     8   ar
@<TRIPOS>MOLECULE
11672244
 106 111 0 0 0
SMALL
GASTEIGER

@<TRIPOS>ATOM
      1 O           4.1627  -17.5698   -0.3565 O.3     1  LIG11      -0.4607
      2 O           0.8353  -12.7182   -3.7295 O.2     1  LIG11      -0.2968
      3 O           3.8985  -23.3475   -2.6043 O.co2   1  LIG11      -0.5492
      4 O           2.5410  -24.0868   -0.9408 O.co2   1  LIG11      -0.5492
      5 O           2.9977  -15.9980    0.8571 O.2     1  LIG11      -0.2456
      6 O           9.9986  -14.1640    1.3558 O.3     1  LIG11      -0.5067
      7 O           8.2304  -12.7169   -4.7447 O.2     1  LIG11      -0.2705
      8 O           4.2892  -15.1526   -7.8049 O.co2   1  LIG11      -0.5452
      9 O           4.0969  -12.9284   -7.3195 O.co2   1  LIG11      -0.5452
     10 N           6.8954  -13.9965   -3.3054 N.am    1  LIG11      -0.2815
     11 C           1.8028  -18.9210   -2.1152 C.3     1  LIG11      -0.0160
     12 C           2.5979  -17.8996   -3.0092 C.3     1  LIG11      -0.0256
     13 C           2.8328  -19.6179   -1.0470 C.3     1  LIG11       0.0318
     14 C           1.7551  -16.8290   -3.8469 C.3     1  LIG11      -0.0243
     15 C           0.7011  -16.1918   -2.8686 C.3     1  LIG11      -0.0235
     16 C           0.6424  -18.2069   -1.3746 C.3     1  LIG11      -0.0461
     17 C           4.0982  -20.1416   -1.7712 C.2     1  LIG11      -0.0596
     18 C           4.9505  -21.1734   -0.9987 C.3     1  LIG11      -0.0080
     19 C          -0.1947  -17.2821   -2.2534 C.3     1  LIG11      -0.0483
     20 C           2.0967  -20.7963   -0.3191 C.3     1  LIG11      -0.0392
     21 C           3.7065  -18.6357   -3.7919 C.3     1  LIG11      -0.0306
     22 C           4.1120  -22.3428   -0.4224 C.3     1  LIG11       0.0167
     23 C          -0.0758  -14.9356   -3.3816 C.3     1  LIG11       0.0267
     24 C           2.7171  -15.6825   -4.2883 C.3     1  LIG11      -0.0404
     25 C           3.0024  -21.7439    0.4711 C.3     1  LIG11      -0.0408
     26 C           1.1565  -20.0215   -3.0179 C.3     1  LIG11      -0.0584
     27 C           4.4400  -19.6776   -2.9917 C.2     1  LIG11      -0.0835
     28 C           3.3137  -18.6398    0.0971 C.3     1  LIG11       0.1025
     29 C           1.1261  -17.4314   -5.1246 C.3     1  LIG11      -0.0590
     30 C           6.2542  -21.6497   -1.6902 C.3     1  LIG11      -0.0405
     31 C           5.0011  -23.2594    0.4555 C.3     1  LIG11      -0.0412
     32 C           2.0190  -14.4526   -4.8622 C.3     1  LIG11       0.0069
     33 C           7.1197  -22.6021   -0.8294 C.3     1  LIG11      -0.0343
     34 C           0.9402  -13.9293   -3.9452 C.2     1  LIG11       0.1392
     35 C           6.2596  -23.7480   -0.2640 C.3     1  LIG11      -0.0470
     36 C          -1.1467  -15.2141   -4.4434 C.3     1  LIG11      -0.0528
     37 C          -0.7898  -14.2465   -2.1867 C.3     1  LIG11      -0.0528
     38 C           3.4453  -23.3431   -1.4279 C.2     1  LIG11       0.0485
     39 C           8.2292  -23.2035   -1.7146 C.3     1  LIG11      -0.0598
     40 C           7.8046  -21.8285    0.3159 C.3     1  LIG11      -0.0598
     41 C           3.9259  -16.3356    0.1370 C.2     1  LIG11       0.3320
     42 C           5.0420  -15.4138   -0.1710 C.2     1  LIG11       0.0231
     43 C           6.0519  -15.6797   -1.0165 C.2     1  LIG11      -0.0460
     44 C           7.2645  -14.8412   -1.0301 C.ar    1  LIG11      -0.0001
     45 C           7.6904  -14.0665   -2.1315 C.ar    1  LIG11       0.0411
     46 C           8.0504  -14.8774    0.1439 C.ar    1  LIG11      -0.0113
     47 C           8.8896  -13.3439   -2.0080 C.ar    1  LIG11      -0.0364
     48 C           9.2288  -14.1470    0.2308 C.ar    1  LIG11       0.1175
     49 C           9.6523  -13.3800   -0.8371 C.ar    1  LIG11      -0.0184
     50 C           7.1915  -13.3007   -4.4621 C.2     1  LIG11       0.2411
     51 C           6.0478  -13.2268   -5.3913 C.2     1  LIG11       0.0021
     52 C           5.7371  -14.2373   -6.2142 C.2     1  LIG11      -0.0344
     53 C           4.6020  -14.0788   -7.2182 C.2     1  LIG11       0.0647
     54 H           9.5988  -14.7827    1.9885 H       1  LIG11       0.2921
     55 H           5.9986  -14.4686   -3.2903 H       1  LIG11       0.1551
     56 H           3.1345  -17.2604   -2.3071 H       1  LIG11       0.0315
     57 H           1.3038  -15.7997   -2.0312 H       1  LIG11       0.0315
     58 H           1.0262  -17.5851   -0.5623 H       1  LIG11       0.0271
     59 H          -0.0221  -18.9402   -0.9024 H       1  LIG11       0.0271
     60 H           5.3137  -20.6030   -0.1318 H       1  LIG11       0.0355
     61 H          -0.7340  -17.8519   -3.0147 H       1  LIG11       0.0269
     62 H          -0.9626  -16.8443   -1.6096 H       1  LIG11       0.0269
     63 H           1.5515  -21.4220   -1.0288 H       1  LIG11       0.0275
     64 H           1.3403  -20.3934    0.3660 H       1  LIG11       0.0275
     65 H           3.3092  -19.1403   -4.6766 H       1  LIG11       0.0310
     66 H           4.4451  -17.9077   -4.1463 H       1  LIG11       0.0310
     67 H           3.4305  -16.0561   -5.0315 H       1  LIG11       0.0275
     68 H           3.3128  -15.3550   -3.4255 H       1  LIG11       0.0275
     69 H           2.3807  -22.5278    0.9223 H       1  LIG11       0.0275
     70 H           3.4464  -21.2151    1.3229 H       1  LIG11       0.0275
     71 H           0.6668  -19.6155   -3.8990 H       1  LIG11       0.0235
     72 H           0.3717  -20.5716   -2.4871 H       1  LIG11       0.0235
     73 H           1.8851  -20.7560   -3.3739 H       1  LIG11       0.0235
     74 H           5.3100  -20.0820   -3.5017 H       1  LIG11       0.0572
     75 H           2.4623  -18.2728    0.6781 H       1  LIG11       0.0706
     76 H           3.9265  -19.1793    0.8259 H       1  LIG11       0.0706
     77 H           0.1710  -17.9253   -4.9415 H       1  LIG11       0.0235
     78 H           1.7843  -18.1516   -5.6143 H       1  LIG11       0.0235
     79 H           0.9306  -16.6795   -5.8914 H       1  LIG11       0.0235
     80 H           6.8636  -20.7742   -1.9544 H       1  LIG11       0.0276
     81 H           6.0152  -22.1422   -2.6397 H       1  LIG11       0.0276
     82 H           4.4410  -24.1361    0.8067 H       1  LIG11       0.0274
     83 H           5.2970  -22.7234    1.3662 H       1  LIG11       0.0274
     84 H           1.5806  -14.6435   -5.8452 H       1  LIG11       0.0342
     85 H           2.7592  -13.6559   -4.9881 H       1  LIG11       0.0342
     86 H           5.9673  -24.4270   -1.0750 H       1  LIG11       0.0271
     87 H           6.8525  -24.3546    0.4328 H       1  LIG11       0.0271
     88 H          -0.7299  -15.5178   -5.4039 H       1  LIG11       0.0239
     89 H          -1.7284  -14.3072   -4.6514 H       1  LIG11       0.0239
     90 H          -1.8523  -15.9836   -4.1146 H       1  LIG11       0.0239
     91 H          -0.0857  -14.0319   -1.3743 H       1  LIG11       0.0239
     92 H          -1.6042  -14.8547   -1.7828 H       1  LIG11       0.0239
     93 H          -1.2382  -13.2903   -2.4829 H       1  LIG11       0.0239
     94 H           7.8066  -23.7704   -2.5519 H       1  LIG11       0.0235
     95 H           8.8670  -23.8857   -1.1411 H       1  LIG11       0.0235
     96 H           8.8695  -22.4193   -2.1339 H       1  LIG11       0.0235
     97 H           7.0876  -21.3669    1.0004 H       1  LIG11       0.0235
     98 H           8.4419  -21.0282   -0.0773 H       1  LIG11       0.0235
     99 H           8.4409  -22.4935    0.9112 H       1  LIG11       0.0235
    100 H           5.0265  -14.5062    0.4239 H       1  LIG11       0.0689
    101 H           6.0869  -16.5854   -1.6179 H       1  LIG11       0.0626
    102 H           7.7314  -15.4905    0.9828 H       1  LIG11       0.0660
    103 H           9.2641  -12.7202   -2.8129 H       1  LIG11       0.0637
    104 H          10.5726  -12.8073   -0.7735 H       1  LIG11       0.0655
    105 H           5.5224  -12.2782   -5.4220 H       1  LIG11       0.0670
    106 H           6.2892  -15.1700   -6.2182 H       1  LIG11       0.0637
@<TRIPOS>BOND
     1     1    41    1
     2     1    28    1
     3     2    34    2
     4     3    38   ar
     5     4    38   ar
     6     5    41    2
     7     6    48    1
     8     7    50    2
     9     8    53   ar
    10     9    53   ar
    11    10    45    1
    12    10    50   am
    13    11    16    1
    14    11    12    1
    15    11    26    1
    16    11    13    1
    17    12    14    1
    18    13    20    1
    19    13    17    1
    20    13    28    1
    21    14    15    1
    22    14    24    1
    23    14    29    1
    24    15    19    1
    25    15    23    1
    26    16    19    1
    27    17    18    1
    28    17    27    2
    29    18    30    1
    30    18    22    1
    31    20    25    1
    32    21    27    1
    33    21    12    1
    34    22    31    1
    35    22    25    1
    36    22    38    1
    37    23    34    1
    38    23    37    1
    39    23    36    1
    40    24    32    1
    41    30    33    1
    42    31    35    1
    43    32    34    1
    44    33    35    1
    45    33    40    1
    46    33    39    1
    47    41    42    1
    48    42    43    2
    49    43    44    1
    50    44    46   ar
    51    44    45   ar
    52    45    47   ar
    53    46    48   ar
    54    47    49   ar
    55    48    49   ar
    56    50    51    1
    57    51    52    2
    58    52    53    1
    59     6    54    1
    60    10    55    1
    61    12    56    1
    62    15    57    1
    63    16    58    1
    64    16    59    1
    65    18    60    1
    66    19    61    1
    67    19    62    1
    68    20    63    1
    69    20    64    1
    70    21    65    1
    71    21    66    1
    72    24    67    1
    73    24    68    1
    74    25    69    1
    75    25    70    1
    76    26    71    1
    77    26    72    1
    78    26    73    1
    79    27    74    1
    80    28    75    1
    81    28    76    1
    82    29    77    1
    83    29    78    1
    84    29    79    1
    85    30    80    1
    86    30    81    1
    87    31    82    1
    88    31    83    1
    89    32    84    1
    90    32    85    1
    91    35    86    1
    92    35    87    1
    93    36    88    1
    94    36    89    1
    95    36    90    1
    96    37    91    1
    97    37    92    1
    98    37    93    1
    99    39    94    1
   100    39    95    1
   101    39    96    1
   102    40    97    1
   103    40    98    1
   104    40    99    1
   105    42   100    1
   106    43   101    1
   107    46   102    1
   108    47   103    1
   109    49   104    1
   110    51   105    1
   111    52   106    1
@<TRIPOS>MOLECULE
../1EDN/XRAY_17-21.pdb
 47 48 0 0 0
SMALL
GASTEIGER

@<TRIPOS>ATOM
      1  N          6.4500  -19.7300   -2.8460 N.3    17  LEU17      -0.1231
      2  CA         5.2640  -20.1680   -2.1160 C.3    17  LEU17       0.1693
      3  C          4.7010  -18.8060   -1.6720 C.2    17  LEU17       0.2592
      4  O          4.3760  -17.9800   -2.5270 O.2    17  LEU17      -0.2718
      5  CB         5.6570  -21.0170   -0.8850 C.3    17  LEU17       0.0284
      6  CG         5.4050  -22.5400   -0.8470 C.3    17  LEU17       0.0019
      7  CD1        6.1110  -23.2140    0.3150 C.3    17  LEU17       0.0001
      8  CD2        3.9240  -22.7940   -0.7690 C.3    17  LEU17       0.0001
      9  N          4.7270  -18.4910   -0.3800 N.am   18  ASP18      -0.1962
     10  CA         4.1720  -17.2010    0.0630 C.3    18  ASP18       0.1783
     11  C          4.7750  -15.8130   -0.3500 C.2    18  ASP18       0.2620
     12  O          4.1570  -14.7710   -0.0750 O.2    18  ASP18      -0.2715
     13  CB         3.8720  -17.2370    1.5730 C.3    18  ASP18       0.0728
     14  CG         2.4440  -17.7210    1.8880 C.2    18  ASP18       0.0526
     15  OD1        1.8320  -18.4410    1.0660 O.co2  18  ASP18      -0.5491
     16  OD2        1.9260  -17.3730    2.9700 O.co2  18  ASP18      -0.5491
     17  N          5.9570  -15.7420   -0.9630 N.am   19  ILE19      -0.1963
     18  CA         6.4450  -14.4030   -1.3510 C.3    19  ILE19       0.1727
     19  C          5.5760  -13.9960   -2.5290 C.2    19  ILE19       0.2616
     20  O          4.8370  -13.0080   -2.4770 O.2    19  ILE19      -0.2715
     21  CB         7.9140  -14.3690   -1.8400 C.3    19  ILE19       0.0290
     22  CG1        8.8760  -14.8240   -0.7490 C.3    19  ILE19       0.0022
     23  CG2        8.2810  -12.9320   -2.2380 C.3    19  ILE19       0.0023
     24  CD1        9.3280  -13.7050    0.1860 C.3    19  ILE19       0.0001
     25  N          5.7170  -14.7750   -3.5990 N.am   20  ILE20      -0.1963
     26  CA         4.9770  -14.6140   -4.8450 C.3    20  ILE20       0.1727
     27  C          4.7560  -16.0550   -5.2510 C.2    20  ILE20       0.2615
     28  O          5.5820  -16.9240   -4.9410 O.2    20  ILE20      -0.2715
     29  CB         5.8140  -13.8870   -5.9550 C.3    20  ILE20       0.0290
     30  CG1        5.9530  -12.3980   -5.6400 C.3    20  ILE20       0.0022
     31  CG2        5.1640  -14.0490   -7.3150 C.3    20  ILE20       0.0023
     32  CD1        6.8340  -11.6390   -6.6010 C.3    20  ILE20       0.0001
     33  N          3.6520  -16.3070   -5.9350 N.am   21  TRP21      -0.1988
     34  CA         3.3300  -17.6370   -6.4010 C.3    21  TRP21       0.1456
     35  C          2.5650  -17.6270   -7.7180 C.2    21  TRP21       0.1166
     36  O          1.8980  -18.6320   -8.0750 O.co2  21  TRP21      -0.3065
     37  CB         2.6690  -18.5180   -5.3120 C.3    21  TRP21       0.0562
     38  CG         1.5690  -17.9980   -4.3600 C.ar   21  TRP21       0.0005
     39  CD1        0.7990  -18.7930   -3.5490 C.ar   21  TRP21       0.0946
     40  CD2        1.2480  -16.6350   -3.9890 C.ar   21  TRP21       0.0152
     41  CE2        0.3020  -16.7070   -2.9250 C.ar   21  TRP21       0.0810
     42  CE3        1.6680  -15.3700   -4.4360 C.ar   21  TRP21       0.0012
     43  NE1        0.0520  -18.0350   -2.6840 N.ar   21  TRP21      -0.2442
     44  CZ2       -0.2230  -15.5590   -2.2950 C.ar   21  TRP21       0.0191
     45  CZ3        1.1420  -14.2140   -3.8060 C.ar   21  TRP21       0.0001
     46  CH2        0.2070  -14.3240   -2.7450 C.ar   21  TRP21       0.0015
     47  OXT        2.7400  -16.6140   -8.4280 O.co2  21  TRP21      -0.8460
@<TRIPOS>BOND
     1    47    35   ar
     2    36    35   ar
     3    35    34    1
     4    31    29    1
     5    32    30    1
     6    34    33    1
     7    34    37    1
     8    29    30    1
     9    29    26    1
    10    33    27   am
    11    37    38    1
    12    27    28    2
    13    27    26    1
    14    26    25    1
    15    42    40   ar
    16    42    45   ar
    17    38    40   ar
    18    38    39   ar
    19    40    41   ar
    20    45    46   ar
    21    25    19   am
    22    39    43   ar
    23    41    43   ar
    24    41    44   ar
    25     1     2    1
    26    46    44   ar
    27    19    20    2
    28    19    18    1
    29     4     3    2
    30    23    21    1
    31     2     3    1
    32     2     5    1
    33    21    18    1
    34    21    22    1
    35     3     9   am
    36    18    17    1
    37    17    11   am
    38     5     6    1
    39     6     8    1
    40     6     7    1
    41    22    24    1
    42     9    10    1
    43    11    12    2
    44    11    10    1
    45    10    13    1
    46    15    14   ar
    47    13    14    1
    48    14    16   ar
