@<TRIPOS>MOLECULE
../1EDN/XRAY_17-21_NOBACKBONE.pdb
 26 23 0 0 0
SMALL
GASTEIGER

@<TRIPOS>ATOM
      1  CB         5.6570  -21.0170   -0.8850 C.3    17  LEU17       0.0000
      2  CG         5.4050  -22.5400   -0.8470 C.3    17  LEU17       0.0000
      3  CD1        6.1110  -23.2140    0.3150 C.3    17  LEU17       0.0000
      4  CD2        3.9240  -22.7940   -0.7690 C.3    17  LEU17       0.0000
      5  CB         3.8720  -17.2370    1.5730 C.3    18  ASP18       0.0476
      6  CG         2.4440  -17.7210    1.8880 C.2    18  ASP18       0.0507
      7  OD1        1.8320  -18.4410    1.0660 O.co2  18  ASP18      -0.5492
      8  OD2        1.9260  -17.3730    2.9700 O.co2  18  ASP18      -0.5492
      9  CB         7.9140  -14.3690   -1.8400 C.3    19  ILE19       0.0000
     10  CG1        8.8760  -14.8240   -0.7490 C.3    19  ILE19       0.0000
     11  CG2        8.2810  -12.9320   -2.2380 C.3    19  ILE19       0.0000
     12  CD1        9.3280  -13.7050    0.1860 C.3    19  ILE19       0.0000
     13  CB         5.8140  -13.8870   -5.9550 C.3    20  ILE20       0.0000
     14  CG1        5.9530  -12.3980   -5.6400 C.3    20  ILE20       0.0000
     15  CG2        5.1640  -14.0490   -7.3150 C.3    20  ILE20       0.0000
     16  CD1        6.8340  -11.6390   -6.6010 C.3    20  ILE20       0.0000
     17  CB         2.6690  -18.5180   -5.3120 C.3    21  TRP21       0.0327
     18  CG         1.5690  -17.9980   -4.3600 C.ar   21  TRP21      -0.0013
     19  CD1        0.7990  -18.7930   -3.5490 C.ar   21  TRP21       0.0946
     20  CD2        1.2480  -16.6350   -3.9890 C.ar   21  TRP21       0.0152
     21  CE2        0.3020  -16.7070   -2.9250 C.ar   21  TRP21       0.0810
     22  CE3        1.6680  -15.3700   -4.4360 C.ar   21  TRP21       0.0012
     23  NE1        0.0520  -18.0350   -2.6840 N.ar   21  TRP21      -0.2442
     24  CZ2       -0.2230  -15.5590   -2.2950 C.ar   21  TRP21       0.0191
     25  CZ3        1.1420  -14.2140   -3.8060 C.ar   21  TRP21       0.0001
     26  CH2        0.2070  -14.3240   -2.7450 C.ar   21  TRP21       0.0015
@<TRIPOS>BOND
     1    15    13    1
     2    16    14    1
     3    13    14    1
     4    17    18    1
     5    22    20   ar
     6    22    25   ar
     7    18    20   ar
     8    18    19   ar
     9    20    21   ar
    10    25    26   ar
    11    19    23   ar
    12    21    23   ar
    13    21    24   ar
    14    26    24   ar
    15    11     9    1
    16     9    10    1
    17     1     2    1
    18     2     4    1
    19     2     3    1
    20    10    12    1
    21     7     6   ar
    22     5     6    1
    23     6     8   ar
@<TRIPOS>MOLECULE
2-[[2-[2-butyl-4-[(Z)-2-carboxy-3-(6-methoxy-1,3-benzodioxol-5-yl)prop-1-enyl]pyrazol-3-yl]-5-methoxyphenoxy]methyl]benzoic acid
 77 81 0 0 0
SMALL
GASTEIGER

@<TRIPOS>ATOM
      1 O           3.7038  -14.4310   -3.9928 O.3     1  LIG11      -0.4866
      2 O           0.6915  -20.2186    3.2800 O.3     1  LIG11      -0.4526
      3 O           0.3050  -17.8645    3.6433 O.3     1  LIG11      -0.4525
      4 O           4.1914  -16.6717    0.9956 O.3     1  LIG11      -0.4947
      5 O           8.0440  -14.0505   -1.8565 O.3     1  LIG11      -0.4950
      6 O           6.4955  -21.3812   -0.6325 O.co2   1  LIG11      -0.5449
      7 O           4.5722  -22.2950   -1.4632 O.co2   1  LIG11      -0.5449
      8 O           3.7233  -15.3619   -7.1129 O.co2   1  LIG11      -0.5446
      9 O           5.5467  -15.8904   -8.3197 O.co2   1  LIG11      -0.5446
     10 N           2.0661  -16.7142   -2.9650 N.ar    1  LIG11      -0.2630
     11 N           1.1421  -17.3035   -2.1558 N.ar    1  LIG11      -0.1785
     12 C           3.3737  -17.1416   -2.7011 C.ar    1  LIG11       0.0795
     13 C           1.5337  -16.1491   -4.1989 C.3     1  LIG11       0.0422
     14 C           0.7103  -14.8642   -4.0114 C.3     1  LIG11      -0.0336
     15 C           3.1348  -18.3871   -2.0941 C.ar    1  LIG11       0.0207
     16 C           4.6427  -16.3403   -2.8634 C.ar    1  LIG11       0.0425
     17 C          -0.6821  -15.1066   -3.4130 C.3     1  LIG11      -0.0542
     18 C           1.7774  -18.3879   -1.7268 C.ar    1  LIG11       0.0571
     19 C           3.9737  -19.5289   -1.9297 C.2     1  LIG11      -0.0459
     20 C           4.7427  -19.4084    0.5429 C.3     1  LIG11       0.0029
     21 C           4.7308  -14.9933   -3.2980 C.ar    1  LIG11       0.1336
     22 C           4.5733  -20.0090   -0.8213 C.2     1  LIG11      -0.0200
     23 C           3.5059  -18.9311    1.2780 C.ar    1  LIG11       0.0023
     24 C           5.8250  -16.8776   -2.3117 C.ar    1  LIG11      -0.0456
     25 C          -1.5404  -13.8507   -3.4408 C.3     1  LIG11      -0.0652
     26 C           5.8296  -14.2004   -2.9165 C.ar    1  LIG11       0.0224
     27 C           3.2614  -17.5496    1.4912 C.ar    1  LIG11       0.1273
     28 C           2.6298  -19.8866    1.8324 C.ar    1  LIG11      -0.0092
     29 C           6.9600  -16.1023   -2.0433 C.ar    1  LIG11      -0.0191
     30 C           1.5820  -19.4388    2.6078 C.ar    1  LIG11       0.1667
     31 C           6.9430  -14.7409   -2.2832 C.ar    1  LIG11       0.1236
     32 C           1.3612  -18.0983    2.8155 C.ar    1  LIG11       0.1697
     33 C           2.1701  -17.1302    2.2622 C.ar    1  LIG11       0.0258
     34 C           5.2883  -21.3583   -1.0060 C.2     1  LIG11       0.0680
     35 C           3.8883  -13.4478   -5.0387 C.3     1  LIG11       0.1153
     36 C          -0.0783  -19.2149    3.9680 C.3     1  LIG11       0.2332
     37 C           5.2109  -13.2263   -5.7695 C.ar    1  LIG11      -0.0016
     38 C           5.7174  -14.0637   -6.7913 C.ar    1  LIG11       0.0037
     39 C           5.9569  -12.0745   -5.4118 C.ar    1  LIG11      -0.0547
     40 C           3.6845  -15.4070    0.5902 C.3     1  LIG11       0.0788
     41 C           7.0045  -13.7744   -7.3100 C.ar    1  LIG11      -0.0525
     42 C           7.2128  -11.8055   -5.9531 C.ar    1  LIG11      -0.0614
     43 C           7.9400  -12.6335   -1.8613 C.3     1  LIG11       0.0788
     44 C           7.7494  -12.6723   -6.8896 C.ar    1  LIG11      -0.0611
     45 C           4.9403  -15.2106   -7.4355 C.2     1  LIG11       0.0720
     46 H           0.9034  -16.9278   -4.6490 H       1  LIG11       0.0509
     47 H           2.3556  -16.0130   -4.9013 H       1  LIG11       0.0509
     48 H           0.5871  -14.3981   -4.9967 H       1  LIG11       0.0283
     49 H           1.2465  -14.1478   -3.3788 H       1  LIG11       0.0283
     50 H          -0.5968  -15.4330   -2.3717 H       1  LIG11       0.0263
     51 H          -1.1963  -15.9015   -3.9654 H       1  LIG11       0.0263
     52 H           1.2317  -19.1481   -1.1844 H       1  LIG11       0.0854
     53 H           4.0624  -20.1319   -2.8360 H       1  LIG11       0.0628
     54 H           5.4944  -18.6133    0.4782 H       1  LIG11       0.0363
     55 H           5.2071  -20.1471    1.2128 H       1  LIG11       0.0363
     56 H           5.8803  -17.9169   -2.0091 H       1  LIG11       0.0626
     57 H          -1.0678  -13.0385   -2.8797 H       1  LIG11       0.0230
     58 H          -2.5168  -14.0520   -2.9877 H       1  LIG11       0.0230
     59 H          -1.7080  -13.5115   -4.4676 H       1  LIG11       0.0230
     60 H           5.7813  -13.1391   -3.0988 H       1  LIG11       0.0691
     61 H           2.8021  -20.9487    1.6841 H       1  LIG11       0.0659
     62 H           7.8221  -16.5709   -1.5774 H       1  LIG11       0.0654
     63 H           1.9745  -16.0873    2.4677 H       1  LIG11       0.0692
     64 H           3.5911  -12.4940   -4.5826 H       1  LIG11       0.0748
     65 H           3.0936  -13.6083   -5.7743 H       1  LIG11       0.0748
     66 H           0.0461  -19.3584    5.0486 H       1  LIG11       0.1166
     67 H          -1.1371  -19.3486    3.7202 H       1  LIG11       0.1166
     68 H           5.5579  -11.3850   -4.6714 H       1  LIG11       0.0622
     69 H           4.4374  -14.9306   -0.0431 H       1  LIG11       0.0660
     70 H           3.5378  -14.7606    1.4610 H       1  LIG11       0.0660
     71 H           2.7592  -15.4972    0.0118 H       1  LIG11       0.0660
     72 H           7.4215  -14.4280   -8.0777 H       1  LIG11       0.0624
     73 H           7.7702  -10.9319   -5.6328 H       1  LIG11       0.0618
     74 H           8.8346  -12.2305   -1.3772 H       1  LIG11       0.0660
     75 H           7.0728  -12.2924   -1.2847 H       1  LIG11       0.0660
     76 H           7.9126  -12.2442   -2.8831 H       1  LIG11       0.0660
     77 H           8.7321  -12.4926   -7.3130 H       1  LIG11       0.0618
@<TRIPOS>BOND
     1     1    35    1
     2     1    21    1
     3     2    36    1
     4     2    30    1
     5     3    32    1
     6     3    36    1
     7     4    27    1
     8     4    40    1
     9     5    31    1
    10     5    43    1
    11     6    34   ar
    12     7    34   ar
    13     8    45   ar
    14     9    45   ar
    15    10    11   ar
    16    10    12   ar
    17    10    13    1
    18    11    18   ar
    19    12    15   ar
    20    13    14    1
    21    14    17    1
    22    15    18   ar
    23    15    19    1
    24    16    24   ar
    25    16    21   ar
    26    16    12    1
    27    17    25    1
    28    19    22    2
    29    20    22    1
    30    20    23    1
    31    21    26   ar
    32    22    34    1
    33    23    28   ar
    34    23    27   ar
    35    24    29   ar
    36    26    31   ar
    37    27    33   ar
    38    28    30   ar
    39    29    31   ar
    40    30    32   ar
    41    32    33   ar
    42    35    37    1
    43    37    39   ar
    44    37    38   ar
    45    38    41   ar
    46    38    45    1
    47    39    42   ar
    48    41    44   ar
    49    42    44   ar
    50    13    46    1
    51    13    47    1
    52    14    48    1
    53    14    49    1
    54    17    50    1
    55    17    51    1
    56    18    52    1
    57    19    53    1
    58    20    54    1
    59    20    55    1
    60    24    56    1
    61    25    57    1
    62    25    58    1
    63    25    59    1
    64    26    60    1
    65    28    61    1
    66    29    62    1
    67    33    63    1
    68    35    64    1
    69    35    65    1
    70    36    66    1
    71    36    67    1
    72    39    68    1
    73    40    69    1
    74    40    70    1
    75    40    71    1
    76    41    72    1
    77    42    73    1
    78    43    74    1
    79    43    75    1
    80    43    76    1
    81    44    77    1
@<TRIPOS>MOLECULE
../1EDN/XRAY_17-21.pdb
 47 48 0 0 0
SMALL
GASTEIGER

@<TRIPOS>ATOM
      1  N          6.4500  -19.7300   -2.8460 N.3    17  LEU17      -0.1231
      2  CA         5.2640  -20.1680   -2.1160 C.3    17  LEU17       0.1693
      3  C          4.7010  -18.8060   -1.6720 C.2    17  LEU17       0.2592
      4  O          4.3760  -17.9800   -2.5270 O.2    17  LEU17      -0.2718
      5  CB         5.6570  -21.0170   -0.8850 C.3    17  LEU17       0.0284
      6  CG         5.4050  -22.5400   -0.8470 C.3    17  LEU17       0.0019
      7  CD1        6.1110  -23.2140    0.3150 C.3    17  LEU17       0.0001
      8  CD2        3.9240  -22.7940   -0.7690 C.3    17  LEU17       0.0001
      9  N          4.7270  -18.4910   -0.3800 N.am   18  ASP18      -0.1962
     10  CA         4.1720  -17.2010    0.0630 C.3    18  ASP18       0.1783
     11  C          4.7750  -15.8130   -0.3500 C.2    18  ASP18       0.2620
     12  O          4.1570  -14.7710   -0.0750 O.2    18  ASP18      -0.2715
     13  CB         3.8720  -17.2370    1.5730 C.3    18  ASP18       0.0728
     14  CG         2.4440  -17.7210    1.8880 C.2    18  ASP18       0.0526
     15  OD1        1.8320  -18.4410    1.0660 O.co2  18  ASP18      -0.5491
     16  OD2        1.9260  -17.3730    2.9700 O.co2  18  ASP18      -0.5491
     17  N          5.9570  -15.7420   -0.9630 N.am   19  ILE19      -0.1963
     18  CA         6.4450  -14.4030   -1.3510 C.3    19  ILE19       0.1727
     19  C          5.5760  -13.9960   -2.5290 C.2    19  ILE19       0.2616
     20  O          4.8370  -13.0080   -2.4770 O.2    19  ILE19      -0.2715
     21  CB         7.9140  -14.3690   -1.8400 C.3    19  ILE19       0.0290
     22  CG1        8.8760  -14.8240   -0.7490 C.3    19  ILE19       0.0022
     23  CG2        8.2810  -12.9320   -2.2380 C.3    19  ILE19       0.0023
     24  CD1        9.3280  -13.7050    0.1860 C.3    19  ILE19       0.0001
     25  N          5.7170  -14.7750   -3.5990 N.am   20  ILE20      -0.1963
     26  CA         4.9770  -14.6140   -4.8450 C.3    20  ILE20       0.1727
     27  C          4.7560  -16.0550   -5.2510 C.2    20  ILE20       0.2615
     28  O          5.5820  -16.9240   -4.9410 O.2    20  ILE20      -0.2715
     29  CB         5.8140  -13.8870   -5.9550 C.3    20  ILE20       0.0290
     30  CG1        5.9530  -12.3980   -5.6400 C.3    20  ILE20       0.0022
     31  CG2        5.1640  -14.0490   -7.3150 C.3    20  ILE20       0.0023
     32  CD1        6.8340  -11.6390   -6.6010 C.3    20  ILE20       0.0001
     33  N          3.6520  -16.3070   -5.9350 N.am   21  TRP21      -0.1988
     34  CA         3.3300  -17.6370   -6.4010 C.3    21  TRP21       0.1456
     35  C          2.5650  -17.6270   -7.7180 C.2    21  TRP21       0.1166
     36  O          1.8980  -18.6320   -8.0750 O.co2  21  TRP21      -0.3065
     37  CB         2.6690  -18.5180   -5.3120 C.3    21  TRP21       0.0562
     38  CG         1.5690  -17.9980   -4.3600 C.ar   21  TRP21       0.0005
     39  CD1        0.7990  -18.7930   -3.5490 C.ar   21  TRP21       0.0946
     40  CD2        1.2480  -16.6350   -3.9890 C.ar   21  TRP21       0.0152
     41  CE2        0.3020  -16.7070   -2.9250 C.ar   21  TRP21       0.0810
     42  CE3        1.6680  -15.3700   -4.4360 C.ar   21  TRP21       0.0012
     43  NE1        0.0520  -18.0350   -2.6840 N.ar   21  TRP21      -0.2442
     44  CZ2       -0.2230  -15.5590   -2.2950 C.ar   21  TRP21       0.0191
     45  CZ3        1.1420  -14.2140   -3.8060 C.ar   21  TRP21       0.0001
     46  CH2        0.2070  -14.3240   -2.7450 C.ar   21  TRP21       0.0015
     47  OXT        2.7400  -16.6140   -8.4280 O.co2  21  TRP21      -0.8460
@<TRIPOS>BOND
     1    47    35   ar
     2    36    35   ar
     3    35    34    1
     4    31    29    1
     5    32    30    1
     6    34    33    1
     7    34    37    1
     8    29    30    1
     9    29    26    1
    10    33    27   am
    11    37    38    1
    12    27    28    2
    13    27    26    1
    14    26    25    1
    15    42    40   ar
    16    42    45   ar
    17    38    40   ar
    18    38    39   ar
    19    40    41   ar
    20    45    46   ar
    21    25    19   am
    22    39    43   ar
    23    41    43   ar
    24    41    44   ar
    25     1     2    1
    26    46    44   ar
    27    19    20    2
    28    19    18    1
    29     4     3    2
    30    23    21    1
    31     2     3    1
    32     2     5    1
    33    21    18    1
    34    21    22    1
    35     3     9   am
    36    18    17    1
    37    17    11   am
    38     5     6    1
    39     6     8    1
    40     6     7    1
    41    22    24    1
    42     9    10    1
    43    11    12    2
    44    11    10    1
    45    10    13    1
    46    15    14   ar
    47    13    14    1
    48    14    16   ar
