@<TRIPOS>MOLECULE
../1EDN/XRAY_17-21_NOBACKBONE.pdb
 26 23 0 0 0
SMALL
GASTEIGER

@<TRIPOS>ATOM
      1  CB         5.6570  -21.0170   -0.8850 C.3    17  LEU17       0.0000
      2  CG         5.4050  -22.5400   -0.8470 C.3    17  LEU17       0.0000
      3  CD1        6.1110  -23.2140    0.3150 C.3    17  LEU17       0.0000
      4  CD2        3.9240  -22.7940   -0.7690 C.3    17  LEU17       0.0000
      5  CB         3.8720  -17.2370    1.5730 C.3    18  ASP18       0.0476
      6  CG         2.4440  -17.7210    1.8880 C.2    18  ASP18       0.0507
      7  OD1        1.8320  -18.4410    1.0660 O.co2  18  ASP18      -0.5492
      8  OD2        1.9260  -17.3730    2.9700 O.co2  18  ASP18      -0.5492
      9  CB         7.9140  -14.3690   -1.8400 C.3    19  ILE19       0.0000
     10  CG1        8.8760  -14.8240   -0.7490 C.3    19  ILE19       0.0000
     11  CG2        8.2810  -12.9320   -2.2380 C.3    19  ILE19       0.0000
     12  CD1        9.3280  -13.7050    0.1860 C.3    19  ILE19       0.0000
     13  CB         5.8140  -13.8870   -5.9550 C.3    20  ILE20       0.0000
     14  CG1        5.9530  -12.3980   -5.6400 C.3    20  ILE20       0.0000
     15  CG2        5.1640  -14.0490   -7.3150 C.3    20  ILE20       0.0000
     16  CD1        6.8340  -11.6390   -6.6010 C.3    20  ILE20       0.0000
     17  CB         2.6690  -18.5180   -5.3120 C.3    21  TRP21       0.0327
     18  CG         1.5690  -17.9980   -4.3600 C.ar   21  TRP21      -0.0013
     19  CD1        0.7990  -18.7930   -3.5490 C.ar   21  TRP21       0.0946
     20  CD2        1.2480  -16.6350   -3.9890 C.ar   21  TRP21       0.0152
     21  CE2        0.3020  -16.7070   -2.9250 C.ar   21  TRP21       0.0810
     22  CE3        1.6680  -15.3700   -4.4360 C.ar   21  TRP21       0.0012
     23  NE1        0.0520  -18.0350   -2.6840 N.ar   21  TRP21      -0.2442
     24  CZ2       -0.2230  -15.5590   -2.2950 C.ar   21  TRP21       0.0191
     25  CZ3        1.1420  -14.2140   -3.8060 C.ar   21  TRP21       0.0001
     26  CH2        0.2070  -14.3240   -2.7450 C.ar   21  TRP21       0.0015
@<TRIPOS>BOND
     1    15    13    1
     2    16    14    1
     3    13    14    1
     4    17    18    1
     5    22    20   ar
     6    22    25   ar
     7    18    20   ar
     8    18    19   ar
     9    20    21   ar
    10    25    26   ar
    11    19    23   ar
    12    21    23   ar
    13    21    24   ar
    14    26    24   ar
    15    11     9    1
    16     9    10    1
    17     1     2    1
    18     2     4    1
    19     2     3    1
    20    10    12    1
    21     7     6   ar
    22     5     6    1
    23     6     8   ar
@<TRIPOS>MOLECULE
9911482
 51 53 0 0 0
SMALL
GASTEIGER

@<TRIPOS>ATOM
      1 S           1.1144  -15.7578   -1.5449 S.O2    1  LIG11       0.0758
      2 S           1.6827  -17.6811   -5.2880 S.2     1  LIG11      -0.0902
      3 O           0.9156  -16.1801    1.9632 O.2     1  LIG11      -0.3377
      4 O           2.5164  -15.6837   -1.2033 O.2     1  LIG11      -0.1499
      5 O           0.3090  -14.6062   -1.8764 O.2     1  LIG11      -0.1499
      6 O           2.0096  -14.0873   -4.3027 O.2     1  LIG11      -0.2692
      7 O           6.0125  -16.2221   -3.8936 O.2     1  LIG11      -0.2923
      8 N           3.7693  -15.3950   -5.0060 N.am    1  LIG11      -0.2802
      9 N           0.2285  -16.5838   -0.3465 N.pl3   1  LIG11      -0.1831
     10 N           1.6911  -16.7756    2.9380 N.ar    1  LIG11      -0.0810
     11 C           4.5634  -14.3447   -5.5328 C.ar    1  LIG11       0.0471
     12 C           1.0989  -16.7298   -2.9794 C.ar    1  LIG11       0.1277
     13 C           4.0863  -13.5060   -6.5610 C.ar    1  LIG11      -0.0283
     14 C           5.8830  -14.1760   -5.0589 C.ar    1  LIG11       0.0388
     15 C           1.8039  -16.4204   -4.1266 C.ar    1  LIG11       0.1007
     16 C           6.2175  -12.2977   -6.5687 C.ar    1  LIG11      -0.0494
     17 C           4.9163  -12.4764   -7.0448 C.ar    1  LIG11      -0.0541
     18 C           6.6963  -13.1535   -5.5732 C.ar    1  LIG11      -0.0466
     19 C           2.5052  -15.1964   -4.4743 C.2     1  LIG11       0.2568
     20 C           0.9903  -16.9001    0.8132 C.ar    1  LIG11       0.2399
     21 C           0.3879  -17.9647   -3.0936 C.ar    1  LIG11      -0.0273
     22 C           1.7737  -18.0153    1.0192 C.ar    1  LIG11       0.0350
     23 C           2.7483  -13.6667   -7.2349 C.3     1  LIG11      -0.0379
     24 C           6.4132  -15.0611   -3.9809 C.2     1  LIG11       0.1619
     25 C           2.2014  -17.8742    2.3709 C.ar    1  LIG11       0.0854
     26 C           0.6237  -18.5857   -4.2991 C.ar    1  LIG11      -0.0217
     27 C           7.0856  -11.1942   -7.1000 C.3     1  LIG11      -0.0397
     28 C           2.0840  -19.1338    0.1029 C.3     1  LIG11      -0.0330
     29 C           3.0612  -18.7889    3.1595 C.3     1  LIG11      -0.0188
     30 C           7.4338  -14.5026   -3.0224 C.3     1  LIG11      -0.0013
     31 H           4.2878  -16.1607   -4.5699 H       1  LIG11       0.1552
     32 H          -0.5029  -15.9145   -0.0886 H       1  LIG11       0.1768
     33 H           4.5397  -11.8188   -7.8307 H       1  LIG11       0.0623
     34 H           7.7127  -13.0168   -5.2124 H       1  LIG11       0.0628
     35 H          -0.2518  -18.3884   -2.3286 H       1  LIG11       0.0643
     36 H           2.2666  -14.6210   -7.0126 H       1  LIG11       0.0278
     37 H           2.0780  -12.8529   -6.9430 H       1  LIG11       0.0278
     38 H           2.8772  -13.6445   -8.3238 H       1  LIG11       0.0278
     39 H           0.2282  -19.5304   -4.6483 H       1  LIG11       0.0694
     40 H           6.6545  -10.7434   -8.0002 H       1  LIG11       0.0278
     41 H           7.2002  -10.4103   -6.3452 H       1  LIG11       0.0278
     42 H           8.0731  -11.5830   -7.3691 H       1  LIG11       0.0278
     43 H           1.3592  -19.2033   -0.7102 H       1  LIG11       0.0280
     44 H           3.0812  -19.0112   -0.3297 H       1  LIG11       0.0280
     45 H           2.0560  -20.0896    0.6374 H       1  LIG11       0.0280
     46 H           3.3433  -18.3505    4.1223 H       1  LIG11       0.0294
     47 H           2.5326  -19.7275    3.3571 H       1  LIG11       0.0294
     48 H           3.9803  -19.0208    2.6125 H       1  LIG11       0.0294
     49 H           7.3696  -15.0470   -2.0755 H       1  LIG11       0.0309
     50 H           8.4373  -14.6194   -3.4386 H       1  LIG11       0.0309
     51 H           7.2316  -13.4496   -2.8056 H       1  LIG11       0.0309
@<TRIPOS>BOND
     1     1     4    2
     2     1     5    2
     3     1     9    1
     4     1    12    1
     5     2    15   ar
     6     2    26   ar
     7     3    10   ar
     8     3    20   ar
     9     6    19    2
    10     7    24    2
    11     8    11    1
    12     8    19   am
    13     9    20    1
    14    10    25   ar
    15    11    13   ar
    16    11    14   ar
    17    12    15   ar
    18    12    21   ar
    19    13    17   ar
    20    13    23    1
    21    14    18   ar
    22    14    24    1
    23    15    19    1
    24    16    17   ar
    25    16    18   ar
    26    16    27    1
    27    20    22   ar
    28    21    26   ar
    29    22    25   ar
    30    22    28    1
    31    24    30    1
    32    25    29    1
    33     8    31    1
    34     9    32    1
    35    17    33    1
    36    18    34    1
    37    21    35    1
    38    23    36    1
    39    23    37    1
    40    23    38    1
    41    26    39    1
    42    27    40    1
    43    27    41    1
    44    27    42    1
    45    28    43    1
    46    28    44    1
    47    28    45    1
    48    29    46    1
    49    29    47    1
    50    29    48    1
    51    30    49    1
    52    30    50    1
    53    30    51    1
@<TRIPOS>MOLECULE
../1EDN/XRAY_17-21.pdb
 47 48 0 0 0
SMALL
GASTEIGER

@<TRIPOS>ATOM
      1  N          6.4500  -19.7300   -2.8460 N.3    17  LEU17      -0.1231
      2  CA         5.2640  -20.1680   -2.1160 C.3    17  LEU17       0.1693
      3  C          4.7010  -18.8060   -1.6720 C.2    17  LEU17       0.2592
      4  O          4.3760  -17.9800   -2.5270 O.2    17  LEU17      -0.2718
      5  CB         5.6570  -21.0170   -0.8850 C.3    17  LEU17       0.0284
      6  CG         5.4050  -22.5400   -0.8470 C.3    17  LEU17       0.0019
      7  CD1        6.1110  -23.2140    0.3150 C.3    17  LEU17       0.0001
      8  CD2        3.9240  -22.7940   -0.7690 C.3    17  LEU17       0.0001
      9  N          4.7270  -18.4910   -0.3800 N.am   18  ASP18      -0.1962
     10  CA         4.1720  -17.2010    0.0630 C.3    18  ASP18       0.1783
     11  C          4.7750  -15.8130   -0.3500 C.2    18  ASP18       0.2620
     12  O          4.1570  -14.7710   -0.0750 O.2    18  ASP18      -0.2715
     13  CB         3.8720  -17.2370    1.5730 C.3    18  ASP18       0.0728
     14  CG         2.4440  -17.7210    1.8880 C.2    18  ASP18       0.0526
     15  OD1        1.8320  -18.4410    1.0660 O.co2  18  ASP18      -0.5491
     16  OD2        1.9260  -17.3730    2.9700 O.co2  18  ASP18      -0.5491
     17  N          5.9570  -15.7420   -0.9630 N.am   19  ILE19      -0.1963
     18  CA         6.4450  -14.4030   -1.3510 C.3    19  ILE19       0.1727
     19  C          5.5760  -13.9960   -2.5290 C.2    19  ILE19       0.2616
     20  O          4.8370  -13.0080   -2.4770 O.2    19  ILE19      -0.2715
     21  CB         7.9140  -14.3690   -1.8400 C.3    19  ILE19       0.0290
     22  CG1        8.8760  -14.8240   -0.7490 C.3    19  ILE19       0.0022
     23  CG2        8.2810  -12.9320   -2.2380 C.3    19  ILE19       0.0023
     24  CD1        9.3280  -13.7050    0.1860 C.3    19  ILE19       0.0001
     25  N          5.7170  -14.7750   -3.5990 N.am   20  ILE20      -0.1963
     26  CA         4.9770  -14.6140   -4.8450 C.3    20  ILE20       0.1727
     27  C          4.7560  -16.0550   -5.2510 C.2    20  ILE20       0.2615
     28  O          5.5820  -16.9240   -4.9410 O.2    20  ILE20      -0.2715
     29  CB         5.8140  -13.8870   -5.9550 C.3    20  ILE20       0.0290
     30  CG1        5.9530  -12.3980   -5.6400 C.3    20  ILE20       0.0022
     31  CG2        5.1640  -14.0490   -7.3150 C.3    20  ILE20       0.0023
     32  CD1        6.8340  -11.6390   -6.6010 C.3    20  ILE20       0.0001
     33  N          3.6520  -16.3070   -5.9350 N.am   21  TRP21      -0.1988
     34  CA         3.3300  -17.6370   -6.4010 C.3    21  TRP21       0.1456
     35  C          2.5650  -17.6270   -7.7180 C.2    21  TRP21       0.1166
     36  O          1.8980  -18.6320   -8.0750 O.co2  21  TRP21      -0.3065
     37  CB         2.6690  -18.5180   -5.3120 C.3    21  TRP21       0.0562
     38  CG         1.5690  -17.9980   -4.3600 C.ar   21  TRP21       0.0005
     39  CD1        0.7990  -18.7930   -3.5490 C.ar   21  TRP21       0.0946
     40  CD2        1.2480  -16.6350   -3.9890 C.ar   21  TRP21       0.0152
     41  CE2        0.3020  -16.7070   -2.9250 C.ar   21  TRP21       0.0810
     42  CE3        1.6680  -15.3700   -4.4360 C.ar   21  TRP21       0.0012
     43  NE1        0.0520  -18.0350   -2.6840 N.ar   21  TRP21      -0.2442
     44  CZ2       -0.2230  -15.5590   -2.2950 C.ar   21  TRP21       0.0191
     45  CZ3        1.1420  -14.2140   -3.8060 C.ar   21  TRP21       0.0001
     46  CH2        0.2070  -14.3240   -2.7450 C.ar   21  TRP21       0.0015
     47  OXT        2.7400  -16.6140   -8.4280 O.co2  21  TRP21      -0.8460
@<TRIPOS>BOND
     1    47    35   ar
     2    36    35   ar
     3    35    34    1
     4    31    29    1
     5    32    30    1
     6    34    33    1
     7    34    37    1
     8    29    30    1
     9    29    26    1
    10    33    27   am
    11    37    38    1
    12    27    28    2
    13    27    26    1
    14    26    25    1
    15    42    40   ar
    16    42    45   ar
    17    38    40   ar
    18    38    39   ar
    19    40    41   ar
    20    45    46   ar
    21    25    19   am
    22    39    43   ar
    23    41    43   ar
    24    41    44   ar
    25     1     2    1
    26    46    44   ar
    27    19    20    2
    28    19    18    1
    29     4     3    2
    30    23    21    1
    31     2     3    1
    32     2     5    1
    33    21    18    1
    34    21    22    1
    35     3     9   am
    36    18    17    1
    37    17    11   am
    38     5     6    1
    39     6     8    1
    40     6     7    1
    41    22    24    1
    42     9    10    1
    43    11    12    2
    44    11    10    1
    45    10    13    1
    46    15    14   ar
    47    13    14    1
    48    14    16   ar
