@<TRIPOS>MOLECULE
16219006
 44 47 0 0 0
SMALL
GASTEIGER

@<TRIPOS>ATOM
      1 O           4.3478   -1.0415    2.2428 O.2     1  PRO11      -0.2738
      2 O           3.1876    1.0799   -1.3272 O.2     5  ASP55      -0.2735
      3 O           1.8919   -1.8621   -1.7936 O.2     2  VAL22      -0.2738
      4 O          -0.2022    2.6488    1.5153 O.2     4  TRP44      -0.2738
      5 O          -0.7188   -1.2489    1.7796 O.2     3  LEU33      -0.2738
      6 OD1         3.5684    4.6940   -0.9928 O.co2   5  ASP55      -0.5497
      7 OD2         3.1025    4.9905   -3.2050 O.co2   5  ASP55      -0.5497
      8 N           3.5023    1.8158    0.7942 N.am    1  PRO11      -0.2884
      9 N           4.0947   -1.1067   -0.0320 N.am    2  VAL22      -0.3022
     10 N           0.4884    1.9891   -0.5699 N.am    5  ASP55      -0.3021
     11 N           1.1098   -2.7706    0.1471 N.am    3  LEU33      -0.3025
     12 N          -1.2057   -0.2635   -0.2394 N.am    4  TRP44      -0.3022
     13 NE1        -3.4986    5.0898    0.6401 N.ar    4  TRP44      -0.3604
     14 CA          4.7218    1.0306    0.9815 C.3     1  PRO11       0.1023
     15 CB          5.3782    1.6355    2.2251 C.3     1  PRO11      -0.0243
     16 CG          4.2059    2.2288    2.9965 C.3     1  PRO11      -0.0350
     17 CD          3.3046    2.7496    1.8897 C.3     1  PRO11       0.0156
     18 C           4.3789   -0.4659    1.1568 C.2     1  PRO11       0.2342
     19 C           2.8909    1.8938   -0.4402 C.2     5  ASP55       0.2369
     20 CA          3.5410   -2.4505   -0.0836 C.3     2  VAL22       0.1017
     21 CA          1.6864    2.8483   -0.6151 C.3     5  ASP55       0.1047
     22 CB          4.4637   -3.4187   -0.8565 C.3     2  VAL22      -0.0197
     23 CA         -0.2801   -2.5410   -0.2258 C.3     3  LEU33       0.0996
     24 C           2.1229   -2.3312   -0.6806 C.2     2  VAL22       0.2342
     25 CB          1.7395    3.5396   -1.9686 C.3     5  ASP55       0.0138
     26 CA         -1.5923    1.0327    0.3489 C.3     4  TRP44       0.1034
     27 CB         -1.1583   -3.7467    0.1268 C.3     3  LEU33      -0.0236
     28 CG         -0.7771   -5.0478   -0.6112 C.3     3  LEU33      -0.0446
     29 C          -0.3427    1.9262    0.5299 C.2     4  TRP44       0.2343
     30 CB         -2.6249    1.7202   -0.5637 C.3     4  TRP44       0.0013
     31 C          -0.7574   -1.2996    0.5525 C.2     3  LEU33       0.2340
     32 CG1         4.7332   -3.0167   -2.3093 C.3     2  VAL22      -0.0605
     33 CG2         3.9331   -4.8543   -0.8017 C.3     2  VAL22      -0.0605
     34 CG         -3.2404    2.9676   -0.0032 C.ar    4  TRP44      -0.0201
     35 CG          2.9240    4.4923   -2.0578 C.2     5  ASP55       0.0440
     36 CD1        -1.7146   -6.1781   -0.1800 C.3     3  LEU33      -0.0626
     37 CD2        -0.8161   -4.8987   -2.1334 C.3     3  LEU33      -0.0626
     38 CD2        -4.5637    3.1351    0.5247 C.ar    4  TRP44       0.0029
     39 CD1        -2.6319    4.2063    0.0616 C.ar    4  TRP44       0.0060
     40 CE2        -4.6956    4.4710    0.9106 C.ar    4  TRP44       0.0467
     41 CE3        -5.6697    2.2778    0.7053 C.ar    4  TRP44      -0.0523
     42 CZ2        -5.8713    4.9917    1.4650 C.ar    4  TRP44      -0.0378
     43 CZ3        -6.8560    2.7836    1.2523 C.ar    4  TRP44      -0.0611
     44 CH2        -6.9524    4.1215    1.6261 C.ar    4  TRP44      -0.0598
@<TRIPOS>BOND
     1     1    18    2
     2     2    19    2
     3     3    24    2
     4     4    29    2
     5     5    31    2
     6     6    35   ar
     7     7    35   ar
     8     8    14    1
     9     8    17    1
    10     8    19   am
    11     9    18   am
    12     9    20    1
    13    10    21    1
    14    10    29   am
    15    11    23    1
    16    11    24   am
    17    12    26    1
    18    12    31   am
    19    13    39   ar
    20    13    40   ar
    21    14    15    1
    22    14    18    1
    23    15    16    1
    24    16    17    1
    25    19    21    1
    26    20    22    1
    27    20    24    1
    28    21    25    1
    29    22    32    1
    30    22    33    1
    31    23    27    1
    32    23    31    1
    33    25    35    1
    34    26    29    1
    35    26    30    1
    36    27    28    1
    37    28    36    1
    38    28    37    1
    39    30    34    1
    40    34    38   ar
    41    34    39   ar
    42    38    40   ar
    43    38    41   ar
    44    40    42   ar
    45    41    43   ar
    46    42    44   ar
    47    43    44   ar
@<TRIPOS>MOLECULE
123882
 66 71 0 0 0
SMALL
GASTEIGER

@<TRIPOS>ATOM
      1 S           2.3516    5.3956    0.7935 S.2     3  UNK33      -0.0993
      2 O           5.0519   -2.8789   -2.9615 O.2     1  UNK11      -0.2755
      3 O          -1.7593    1.1588    4.2576 O.2     4  LEU44      -0.2738
      4 O           3.3086    0.0148   -1.5260 O.2     1  UNK11      -0.2737
      5 O           0.5272    0.0939    1.1008 O.2     5  TRP55      -0.2738
      6 O           0.2491   -2.1452   -1.8790 O.2     6  ASP66      -0.2738
      7 O           2.1290    4.2502    4.0827 O.2     3  UNK33      -0.2734
      8 O           3.8646    0.6015    2.7692 O.2     2  ASP22      -0.2737
      9 OD1        -3.0796   -2.8328    1.6111 O.co2   6  ASP66      -0.5497
     10 OD2        -2.0620   -4.8327    2.0713 O.co2   6  ASP66      -0.5497
     11 OD1         8.0829    0.3073   -0.2147 O.co2   2  ASP22      -0.5497
     12 OD2         7.3007   -1.7841    0.3073 O.co2   2  ASP22      -0.5497
     13 N           6.0477   -4.5573   -1.7687 N.am    1  UNK11      -0.2984
     14 N           7.7795   -6.8680   -2.0523 N.pl3   1  UNK11      -0.3269
     15 N           1.8379   -2.5114   -0.2531 N.am    1  UNK11      -0.3020
     16 N          -0.8351    1.9447    2.3151 N.am    5  TRP55      -0.3022
     17 N           1.5917    2.1801    3.2907 N.am    4  LEU44      -0.3022
     18 N          -1.3000   -1.1411    0.4866 N.am    6  ASP66      -0.3021
     19 N           4.3706   -0.8997    0.2729 N.am    2  ASP22      -0.3021
     20 N           3.6911    2.3146    1.2911 N.am    3  UNK33      -0.2984
     21 NE1        -3.5730    5.1809    1.1165 N.ar    5  TRP55      -0.3604
     22 C           7.2260   -4.5012   -2.6372 C.3     1  UNK11       0.0304
     23 C           6.1083   -5.5411   -0.6816 C.3     1  UNK11       0.0304
     24 C           8.3243   -5.5029   -2.2399 C.3     1  UNK11       0.0280
     25 C           6.5582   -6.9264   -1.2012 C.3     1  UNK11       0.0280
     26 C           5.0563   -3.6076   -1.9688 C.2     1  UNK11       0.2179
     27 C           3.9370   -3.5639   -0.9483 C.3     1  UNK11       0.0510
     28 C           2.9900   -2.3792   -1.1581 C.3     1  UNK11       0.1076
     29 CA          0.5786    1.8772    4.3192 C.3     4  LEU44       0.0997
     30 CB          1.0824    0.6791    5.1465 C.3     4  LEU44      -0.0236
     31 CA         -1.6513    1.1347    1.4065 C.3     5  TRP55       0.1034
     32 C           7.8081   -7.7989   -3.0976 C.ar    1  UNK11       0.0298
     33 CG          0.2341    0.2393    6.3565 C.3     4  LEU44      -0.0446
     34 CB         -2.1033    1.9292    0.1759 C.3     5  TRP55       0.0013
     35 C          -0.7864    1.5961    3.6508 C.2     4  LEU44       0.2340
     36 CA         -0.5137   -2.3766    0.4366 C.3     6  ASP66       0.1045
     37 C           3.6068   -0.9871   -0.8740 C.2     1  UNK11       0.2344
     38 CG         -2.9583    3.1195    0.5243 C.ar    5  TRP55      -0.0201
     39 C          -0.6993   -0.0106    0.9890 C.2     5  TRP55       0.2343
     40 C           0.5404   -2.3113   -0.6958 C.2     6  ASP66       0.2343
     41 CA          5.0394    0.3376    0.6434 C.3     2  ASP22       0.1045
     42 CD2        -0.0465    1.3805    7.3317 C.3     4  LEU44      -0.0626
     43 CD1         0.9398   -0.9084    7.0874 C.3     4  LEU44      -0.0626
     44 C           3.5666    3.3462    2.3135 C.3     3  UNK33       0.1311
     45 C           8.0926   -7.4603   -4.4286 C.ar    1  UNK11      -0.0407
     46 C           7.5513   -9.1570   -2.8363 C.ar    1  UNK11      -0.0407
     47 CD2        -4.3830    3.1539    0.6739 C.ar    5  TRP55       0.0029
     48 C           2.3499    3.3281    3.2938 C.2     3  UNK33       0.2390
     49 CB         -1.3851   -3.6014    0.1839 C.3     6  ASP66       0.0138
     50 CD1        -2.5018    4.3972    0.7905 C.ar    5  TRP55       0.0060
     51 CE2        -4.7373    4.4537    1.0423 C.ar    5  TRP55       0.0467
     52 C           4.1429    1.0673    1.6633 C.2     2  ASP22       0.2345
     53 CB          6.3600    0.0834    1.3591 C.3     2  ASP22       0.0138
     54 C           8.0921   -8.4194   -5.4504 C.ar    1  UNK11      -0.0600
     55 C           7.5531  -10.1229   -3.8490 C.ar    1  UNK11      -0.0600
     56 C           3.6796    4.6873    1.6212 C.ar    3  UNK33       0.0189
     57 CE3        -5.4064    2.1931    0.5454 C.ar    5  TRP55      -0.0523
     58 C           7.8197   -9.7516   -5.1620 C.ar    1  UNK11      -0.0616
     59 CZ2        -6.0613    4.8411    1.2868 C.ar    5  TRP55      -0.0378
     60 CG         -2.2596   -3.7783    1.4101 C.2     6  ASP66       0.0440
     61 CZ3        -6.7358    2.5641    0.7811 C.ar    5  TRP55      -0.0611
     62 C           4.8133    5.4737    1.5080 C.ar    3  UNK33      -0.0493
     63 CH2        -7.0563    3.8695    1.1465 C.ar    5  TRP55      -0.0598
     64 CG          7.3354   -0.5208    0.3738 C.2     2  ASP22       0.0440
     65 C           4.5790    6.6722    0.7774 C.ar    3  UNK33      -0.0544
     66 C           3.2756    6.7628    0.3446 C.ar    3  UNK33      -0.0240
@<TRIPOS>BOND
     1     1    56   ar
     2     1    66   ar
     3     2    26    2
     4     3    35    2
     5     4    37    2
     6     5    39    2
     7     6    40    2
     8     7    48    2
     9     8    52    2
    10     9    60   ar
    11    10    60   ar
    12    11    64   ar
    13    12    64   ar
    14    13    22    1
    15    13    23    1
    16    14    24    1
    17    14    25    1
    18    14    32    1
    19    15    28    1
    20    15    40   am
    21    16    35   am
    22    16    31    1
    23    17    48   am
    24    17    29    1
    25    18    39   am
    26    18    36    1
    27    19    37   am
    28    19    41    1
    29    20    52   am
    30    20    44    1
    31    21    50   ar
    32    21    51   ar
    33    22    24    1
    34    23    25    1
    35    26    27    1
    36    26    13   am
    37    28    37    1
    38    28    27    1
    39    29    35    1
    40    29    30    1
    41    30    33    1
    42    31    39    1
    43    31    34    1
    44    32    45   ar
    45    32    46   ar
    46    33    43    1
    47    33    42    1
    48    34    38    1
    49    36    40    1
    50    36    49    1
    51    38    47   ar
    52    38    50   ar
    53    41    52    1
    54    41    53    1
    55    44    48    1
    56    44    56    1
    57    45    54   ar
    58    46    55   ar
    59    47    57   ar
    60    47    51   ar
    61    49    60    1
    62    51    59   ar
    63    53    64    1
    64    54    58   ar
    65    55    58   ar
    66    56    62   ar
    67    57    61   ar
    68    59    63   ar
    69    61    63   ar
    70    62    65   ar
    71    65    66   ar
