@<TRIPOS>MOLECULE
16219006
 44 47 0 0 0
SMALL
GASTEIGER

@<TRIPOS>ATOM
      1 O           4.1585   -1.0018    2.2445 O.2     1  PRO11      -0.2738
      2 O           3.1807    1.0765   -1.3501 O.2     5  ASP55      -0.2735
      3 O           1.9887   -1.8741   -1.8050 O.2     2  VAL22      -0.2738
      4 O          -0.4537    2.9729    1.2651 O.2     4  TRP44      -0.2738
      5 O          -0.2975   -1.1453    1.7344 O.2     3  LEU33      -0.2738
      6 OD1         3.4957    4.7352   -1.0446 O.co2   5  ASP55      -0.5497
      7 OD2         3.1976    4.8166   -3.3040 O.co2   5  ASP55      -0.5497
      8 N           3.4550    1.8241    0.7690 N.am    1  PRO11      -0.2884
      9 N           4.1715   -1.1390   -0.0437 N.am    2  VAL22      -0.3022
     10 N           0.4730    1.9816   -0.5892 N.am    5  ASP55      -0.3021
     11 N           1.1920   -2.8556    0.0984 N.am    3  LEU33      -0.3025
     12 N          -1.1076   -0.2508   -0.2175 N.am    4  TRP44      -0.3022
     13 NE1        -5.4990   -0.6286   -1.3433 N.ar    4  TRP44      -0.3604
     14 CA          4.6677    1.0356    0.9767 C.3     1  PRO11       0.1023
     15 CB          5.3023    1.6384    2.2324 C.3     1  PRO11      -0.0243
     16 CG          4.1201    2.2440    2.9803 C.3     1  PRO11      -0.0350
     17 CD          3.2385    2.7620    1.8566 C.3     1  PRO11       0.0156
     18 C           4.3191   -0.4603    1.1520 C.2     1  PRO11       0.2342
     19 C           2.8677    1.8979   -0.4766 C.2     5  ASP55       0.2369
     20 CA          3.6218   -2.4883   -0.0965 C.3     2  VAL22       0.1017
     21 CA          1.6613    2.8502   -0.6703 C.3     5  ASP55       0.1047
     22 CB          4.5416   -3.4625   -0.8661 C.3     2  VAL22      -0.0197
     23 CA         -0.1870   -2.5269   -0.2525 C.3     3  LEU33       0.0996
     24 C           2.2096   -2.3742   -0.7035 C.2     2  VAL22       0.2342
     25 CB          1.7136    3.5168   -2.0343 C.3     5  ASP55       0.0138
     26 CA         -1.5515    0.9998    0.4062 C.3     4  TRP44       0.1034
     27 CB         -1.1326   -3.6676    0.1389 C.3     3  LEU33      -0.0236
     28 CG         -2.6059   -3.4424   -0.2597 C.3     3  LEU33      -0.0446
     29 C          -0.4252    2.0497    0.4536 C.2     4  TRP44       0.2343
     30 CB         -2.7483    1.6139   -0.3380 C.3     4  TRP44       0.0013
     31 C          -0.5255   -1.2468    0.5299 C.2     3  LEU33       0.2340
     32 CG1         4.8055   -3.0718   -2.3227 C.3     2  VAL22      -0.0605
     33 CG2         4.0057   -4.8966   -0.8005 C.3     2  VAL22      -0.0605
     34 CG         -3.9245    0.6859   -0.4648 C.ar    4  TRP44      -0.0201
     35 CG          2.9240    4.4393   -2.1292 C.2     5  ASP55       0.0440
     36 CD1        -2.7883   -3.2781   -1.7695 C.3     3  LEU33      -0.0626
     37 CD2        -3.4616   -4.6104    0.2353 C.3     3  LEU33      -0.0626
     38 CD2        -4.7261    0.1507    0.5965 C.ar    4  TRP44       0.0029
     39 CD1        -4.4409    0.1851   -1.6450 C.ar    4  TRP44       0.0060
     40 CE2        -5.6887   -0.6777    0.0175 C.ar    4  TRP44       0.0467
     41 CE3        -4.7169    0.2852    2.0003 C.ar    4  TRP44      -0.0523
     42 CZ2        -6.6334   -1.3860    0.7707 C.ar    4  TRP44      -0.0378
     43 CZ3        -5.6526   -0.4168    2.7687 C.ar    4  TRP44      -0.0611
     44 CH2        -6.5950   -1.2415    2.1602 C.ar    4  TRP44      -0.0598
@<TRIPOS>BOND
     1     1    18    2
     2     2    19    2
     3     3    24    2
     4     4    29    2
     5     5    31    2
     6     6    35   ar
     7     7    35   ar
     8     8    14    1
     9     8    17    1
    10     8    19   am
    11     9    18   am
    12     9    20    1
    13    10    21    1
    14    10    29   am
    15    11    23    1
    16    11    24   am
    17    12    26    1
    18    12    31   am
    19    13    39   ar
    20    13    40   ar
    21    14    15    1
    22    14    18    1
    23    15    16    1
    24    16    17    1
    25    19    21    1
    26    20    22    1
    27    20    24    1
    28    21    25    1
    29    22    32    1
    30    22    33    1
    31    23    27    1
    32    23    31    1
    33    25    35    1
    34    26    29    1
    35    26    30    1
    36    27    28    1
    37    28    36    1
    38    28    37    1
    39    30    34    1
    40    34    38   ar
    41    34    39   ar
    42    38    40   ar
    43    38    41   ar
    44    40    42   ar
    45    41    43   ar
    46    42    44   ar
    47    43    44   ar
@<TRIPOS>MOLECULE
6433095
 41 45 0 0 0
SMALL
GASTEIGER

@<TRIPOS>ATOM
      1 S          -6.3074    0.7790   -4.6474 S.O2    1  LIG11       0.0908
      2 O          -5.5773   -0.0886   -1.2831 O.3     1  LIG11      -0.4435
      3 O          -3.3809   -1.8345   -0.9575 O.3     1  LIG11      -0.4715
      4 O          -5.8685   -0.6043   -4.6433 O.2     1  LIG11      -0.1484
      5 O          -6.2917    1.5587   -5.8672 O.2     1  LIG11      -0.1484
      6 O          -3.7109    1.4185    0.3199 O.3     1  LIG11      -0.4914
      7 O          -2.2776   -3.1987    1.4236 O.3     1  LIG11      -0.3917
      8 N          -5.4208    1.6731   -3.4957 N.pl3   1  LIG11      -0.1950
      9 N          -3.1770    1.2168   -3.6851 N.ar    1  LIG11      -0.2073
     10 N          -2.1434   -0.5717   -2.5001 N.ar    1  LIG11      -0.1899
     11 N          -8.7724    1.7915   -4.4164 N.ar    1  LIG11      -0.2351
     12 N           1.6732    1.3965   -5.1602 N.ar    1  LIG11      -0.2552
     13 N          -0.3280    3.7262   -7.1716 N.ar    1  LIG11      -0.5621
     14 N           1.9023    3.3479   -7.1870 N.ar    1  LIG11      -0.1535
     15 N           0.3483    4.4692   -8.0598 N.ar    1  LIG11      -0.3597
     16 N           1.6696    4.2794   -8.1012 N.ar    1  LIG11      -0.0878
     17 C          -4.2971    0.9615   -2.9908 C.ar    1  LIG11       0.1882
     18 C          -4.4143    0.0191   -1.9908 C.ar    1  LIG11       0.2307
     19 C          -3.2995   -0.7753   -1.8381 C.ar    1  LIG11       0.2641
     20 C          -2.1185    0.4476   -3.3786 C.ar    1  LIG11       0.1659
     21 C          -7.9668    0.8010   -3.9535 C.ar    1  LIG11       0.1969
     22 C          -0.8251    0.7610   -4.0108 C.ar    1  LIG11       0.0227
     23 C          -8.3766   -0.2171   -3.1032 C.ar    1  LIG11      -0.0160
     24 C          -5.5025   -0.1564    0.0969 C.ar    1  LIG11       0.1702
     25 C          -0.7118    1.7214   -5.0296 C.ar    1  LIG11      -0.0252
     26 C         -10.5695    0.7883   -3.1327 C.ar    1  LIG11      -0.0322
     27 C          -9.7035   -0.2122   -2.6821 C.ar    1  LIG11      -0.0541
     28 C           0.3571    0.1290   -3.5971 C.ar    1  LIG11      -0.0328
     29 C          -2.2290   -2.6823   -0.9406 C.3     1  LIG11       0.1143
     30 C           0.5379    2.0129   -5.5751 C.ar    1  LIG11       0.0708
     31 C         -10.0575    1.7512   -4.0010 C.ar    1  LIG11       0.0327
     32 C          -4.5858    0.5390    0.9064 C.ar    1  LIG11       0.1621
     33 C          -6.4622   -0.9850    0.6904 C.ar    1  LIG11      -0.0157
     34 C           1.5589    0.4731   -4.1885 C.ar    1  LIG11       0.0289
     35 C         -12.0193    0.7820   -2.7610 C.3     1  LIG11      -0.0383
     36 C          -2.4539   -3.7558    0.1211 C.3     1  LIG11       0.0783
     37 C          -4.6345    0.3745    2.2965 C.ar    1  LIG11      -0.0163
     38 C          -6.4944   -1.1519    2.0748 C.ar    1  LIG11      -0.0581
     39 C          -5.5770   -0.4770    2.8761 C.ar    1  LIG11      -0.0581
     40 C           0.6849    3.0169   -6.6311 C.ar    1  LIG11       0.0207
     41 C          -2.3840    1.3563    0.8441 C.3     1  LIG11       0.0790
@<TRIPOS>BOND
     1     1     4    2
     2     1     5    2
     3     1     8    1
     4     1    21    1
     5     2    18    1
     6     2    24    1
     7     3    19    1
     8     3    29    1
     9     6    32    1
    10     6    41    1
    11     7    36    1
    12     8    17    1
    13     9    17   ar
    14     9    20   ar
    15    10    19   ar
    16    10    20   ar
    17    11    21   ar
    18    11    31   ar
    19    12    30   ar
    20    12    34   ar
    21    13    15   ar
    22    13    40   ar
    23    14    16   ar
    24    14    40   ar
    25    15    16   ar
    26    17    18   ar
    27    18    19   ar
    28    20    22    1
    29    21    23   ar
    30    22    25   ar
    31    22    28   ar
    32    23    27   ar
    33    24    32   ar
    34    24    33   ar
    35    25    30   ar
    36    26    27   ar
    37    26    31   ar
    38    26    35    1
    39    28    34   ar
    40    29    36    1
    41    30    40    1
    42    32    37   ar
    43    33    38   ar
    44    37    39   ar
    45    38    39   ar
