@<TRIPOS>MOLECULE
16219006
 44 47 0 0 0
SMALL
GASTEIGER

@<TRIPOS>ATOM
      1 O           4.2511   -0.9914    2.2750 O.2     1  PRO11      -0.2738
      2 O           3.2379    1.1048   -1.3337 O.2     5  ASP55      -0.2735
      3 O           1.9366   -1.8325   -1.7432 O.2     2  VAL22      -0.2738
      4 O          -0.5639    2.9799    1.1493 O.2     4  TRP44      -0.2738
      5 O          -0.6826   -1.2634    1.7987 O.2     3  LEU33      -0.2738
      6 OD1         3.5728    4.6831   -1.0378 O.co2   5  ASP55      -0.5497
      7 OD2         3.1941    4.8727   -3.2777 O.co2   5  ASP55      -0.5497
      8 N           3.4735    1.8358    0.7978 N.am    1  PRO11      -0.2884
      9 N           4.1632   -1.0920   -0.0121 N.am    2  VAL22      -0.3022
     10 N           0.5210    1.9523   -0.5921 N.am    5  ASP55      -0.3021
     11 N           1.1911   -2.8072    0.1812 N.am    3  LEU33      -0.3025
     12 N          -1.1021   -0.3159   -0.2556 N.am    4  TRP44      -0.3022
     13 NE1        -1.9747    1.6739   -4.1458 N.ar    4  TRP44      -0.3604
     14 CA          4.6967    1.0667    1.0162 C.3     1  PRO11       0.1023
     15 CB          5.3096    1.6778    2.2782 C.3     1  PRO11      -0.0243
     16 CG          4.1077    2.2520    3.0195 C.3     1  PRO11      -0.0350
     17 CD          3.2252    2.7591    1.8908 C.3     1  PRO11       0.0156
     18 C           4.3606   -0.4317    1.1853 C.2     1  PRO11       0.2342
     19 C           2.9026    1.9147   -0.4568 C.2     5  ASP55       0.2369
     20 CA          3.6129   -2.4381   -0.0676 C.3     2  VAL22       0.1017
     21 CA          1.6854    2.8510   -0.6546 C.3     5  ASP55       0.1047
     22 CB          4.5230   -3.4021   -0.8607 C.3     2  VAL22      -0.0197
     23 CA         -0.2004   -2.5873   -0.1817 C.3     3  LEU33       0.0996
     24 C           2.1870   -2.3236   -0.6442 C.2     2  VAL22       0.2342
     25 CB          1.7395    3.5304   -2.0130 C.3     5  ASP55       0.0138
     26 CA         -1.5778    0.9720    0.2619 C.3     4  TRP44       0.1034
     27 CB         -1.0786   -3.7873    0.1893 C.3     3  LEU33      -0.0236
     28 CG         -0.7319   -5.0859   -0.5694 C.3     3  LEU33      -0.0446
     29 C          -0.4694    2.0440    0.3570 C.2     4  TRP44       0.2343
     30 CB         -2.7816    1.4887   -0.5457 C.3     4  TRP44       0.0013
     31 C          -0.6822   -1.3331    0.5736 C.2     3  LEU33       0.2340
     32 CG1         4.7655   -2.9944   -2.3164 C.3     2  VAL22      -0.0605
     33 CG2         3.9935   -4.8387   -0.8028 C.3     2  VAL22      -0.0605
     34 CG         -2.4934    1.8296   -1.9813 C.ar    4  TRP44      -0.0201
     35 CG          2.9541    4.4459   -2.1126 C.2     5  ASP55       0.0440
     36 CD1        -1.6837   -6.2032   -0.1359 C.3     3  LEU33      -0.0626
     37 CD2        -0.7926   -4.9206   -2.0896 C.3     3  LEU33      -0.0626
     38 CD2        -2.4138    3.1494   -2.5374 C.ar    4  TRP44       0.0029
     39 CD1        -2.2675    0.9472   -3.0223 C.ar    4  TRP44       0.0060
     40 CE2        -2.0914    3.0175   -3.8875 C.ar    4  TRP44       0.0467
     41 CE3        -2.5714    4.4487   -2.0115 C.ar    4  TRP44      -0.0523
     42 CZ2        -1.9136    4.1154   -4.7373 C.ar    4  TRP44      -0.0378
     43 CZ3        -2.4095    5.5579   -2.8496 C.ar    4  TRP44      -0.0611
     44 CH2        -2.0829    5.3907   -4.1923 C.ar    4  TRP44      -0.0598
@<TRIPOS>BOND
     1     1    18    2
     2     2    19    2
     3     3    24    2
     4     4    29    2
     5     5    31    2
     6     6    35   ar
     7     7    35   ar
     8     8    14    1
     9     8    17    1
    10     8    19   am
    11     9    18   am
    12     9    20    1
    13    10    21    1
    14    10    29   am
    15    11    23    1
    16    11    24   am
    17    12    26    1
    18    12    31   am
    19    13    39   ar
    20    13    40   ar
    21    14    15    1
    22    14    18    1
    23    15    16    1
    24    16    17    1
    25    19    21    1
    26    20    22    1
    27    20    24    1
    28    21    25    1
    29    22    32    1
    30    22    33    1
    31    23    27    1
    32    23    31    1
    33    25    35    1
    34    26    29    1
    35    26    30    1
    36    27    28    1
    37    28    36    1
    38    28    37    1
    39    30    34    1
    40    34    38   ar
    41    34    39   ar
    42    38    40   ar
    43    38    41   ar
    44    40    42   ar
    45    41    43   ar
    46    42    44   ar
    47    43    44   ar
@<TRIPOS>MOLECULE
108002
 38 42 0 0 0
SMALL
GASTEIGER

@<TRIPOS>ATOM
      1 O           1.6622    3.4780   -0.2097 O.co2   1  LIG11      -0.5495
      2 O           1.7177    5.0675   -1.8361 O.co2   1  LIG11      -0.5495
      3 O          -1.9210   -2.4441   -2.5398 O.3     1  LIG11      -0.4920
      4 O           2.6752   -1.0013   -1.9990 O.3     1  LIG11      -0.4858
      5 O          -3.5623    7.0220   -2.7846 O.3     1  LIG11      -0.4526
      6 O          -3.6381    6.6886   -5.1751 O.3     1  LIG11      -0.4526
      7 O           5.7386    0.0884   -5.6635 O.3     1  LIG11      -0.4950
      8 O           4.3709   -3.8802   -2.9849 O.co2   1  LIG11      -0.5463
      9 O           2.0945   -3.7346   -2.8783 O.co2   1  LIG11      -0.5463
     10 C           0.8207    2.9600   -2.3780 C.3     1  LIG11       0.0203
     11 C           1.2849    1.4722   -2.2843 C.3     1  LIG11       0.0218
     12 C          -0.6863    3.0279   -2.0347 C.3     1  LIG11       0.0184
     13 C          -0.0441    0.7466   -2.4825 C.ar    1  LIG11      -0.0320
     14 C          -1.1275    1.6014   -2.2504 C.ar    1  LIG11      -0.0353
     15 C          -1.4611    4.0045   -2.9231 C.ar    1  LIG11      -0.0356
     16 C           2.4618    1.0518   -3.1888 C.ar    1  LIG11       0.0026
     17 C           1.4747    3.9098   -1.3803 C.2     1  LIG11       0.0466
     18 C          -0.2859   -0.6116   -2.6695 C.ar    1  LIG11      -0.0159
     19 C          -2.4351    1.1265   -2.1855 C.ar    1  LIG11      -0.0542
     20 C          -1.5867   -1.1134   -2.5309 C.ar    1  LIG11       0.1208
     21 C           3.1397   -0.1818   -2.9992 C.ar    1  LIG11       0.1283
     22 C          -2.1365    5.0912   -2.3455 C.ar    1  LIG11      -0.0124
     23 C          -1.5198    3.8224   -4.3301 C.ar    1  LIG11      -0.0543
     24 C          -2.6594   -0.2397   -2.3258 C.ar    1  LIG11      -0.0196
     25 C           2.9686    1.9088   -4.1871 C.ar    1  LIG11      -0.0510
     26 C          -2.8421    5.9359   -3.1778 C.ar    1  LIG11       0.1665
     27 C          -2.2362    4.6975   -5.1496 C.ar    1  LIG11      -0.0159
     28 C           4.2319   -0.5271   -3.8155 C.ar    1  LIG11       0.0221
     29 C           4.0621    1.5541   -4.9836 C.ar    1  LIG11      -0.0194
     30 C          -2.8890    5.7445   -4.5398 C.ar    1  LIG11       0.1662
     31 C           4.6895    0.3290   -4.8146 C.ar    1  LIG11       0.1236
     32 C          -0.8783   -3.3321   -2.1077 C.3     1  LIG11       0.0893
     33 C          -4.0218    7.5128   -4.0584 C.3     1  LIG11       0.2332
     34 C           3.4260   -2.1760   -1.6261 C.3     1  LIG11       0.1287
     35 C          -1.5071   -4.4138   -1.2331 C.3     1  LIG11      -0.0215
     36 C           3.2746   -3.3618   -2.6069 C.2     1  LIG11       0.0789
     37 C           6.2687   -1.2334   -5.6366 C.3     1  LIG11       0.0788
     38 C          -0.4527   -5.3315   -0.6355 C.3     1  LIG11      -0.0622
@<TRIPOS>BOND
     1     1    17   ar
     2     2    17   ar
     3     3    20    1
     4     3    32    1
     5     4    21    1
     6     4    34    1
     7     5    26    1
     8     5    33    1
     9     6    30    1
    10     6    33    1
    11     7    31    1
    12     7    37    1
    13     8    36   ar
    14     9    36   ar
    15    10    11    1
    16    10    12    1
    17    10    17    1
    18    11    13    1
    19    11    16    1
    20    12    14    1
    21    12    15    1
    22    13    14   ar
    23    13    18   ar
    24    14    19   ar
    25    15    22   ar
    26    15    23   ar
    27    16    21   ar
    28    16    25   ar
    29    18    20   ar
    30    19    24   ar
    31    20    24   ar
    32    21    28   ar
    33    22    26   ar
    34    23    27   ar
    35    25    29   ar
    36    26    30   ar
    37    27    30   ar
    38    28    31   ar
    39    29    31   ar
    40    32    35    1
    41    34    36    1
    42    35    38    1
