@<TRIPOS>MOLECULE
16219006
 44 47 0 0 0
SMALL
GASTEIGER

@<TRIPOS>ATOM
      1 O           4.5485   -0.9717    2.1928 O.2     1  PRO11      -0.2738
      2 O           3.3858    1.2213   -1.4248 O.2     5  ASP55      -0.2735
      3 O           1.9003   -1.6917   -1.7321 O.2     2  VAL22      -0.2738
      4 O           0.0522    2.4408    1.5695 O.2     4  TRP44      -0.2738
      5 O          -0.5989   -1.3451    1.7792 O.2     3  LEU33      -0.2738
      6 OD1         0.6458    5.5018   -2.1487 O.co2   5  ASP55      -0.5497
      7 OD2        -0.4878    3.5804   -2.6685 O.co2   5  ASP55      -0.5497
      8 N           3.5427    1.9040    0.7162 N.am    1  PRO11      -0.2884
      9 N           4.1061   -1.0169   -0.0518 N.am    2  VAL22      -0.3022
     10 N           0.4985    1.9417   -0.6340 N.am    5  ASP55      -0.3021
     11 N           1.1369   -2.8662    0.0743 N.am    3  LEU33      -0.3025
     12 N          -1.1439   -0.3005   -0.2013 N.am    4  TRP44      -0.3022
     13 NE1        -3.5693    5.0924    0.4996 N.ar    4  TRP44      -0.3604
     14 CA          4.7667    1.1286    0.9430 C.3     1  PRO11       0.1023
     15 CB          5.3753    1.7517    2.2029 C.3     1  PRO11      -0.0243
     16 CG          4.1607    2.2689    2.9619 C.3     1  PRO11      -0.0350
     17 CD          3.2550    2.7701    1.8489 C.3     1  PRO11       0.0156
     18 C           4.4570   -0.3779    1.1198 C.2     1  PRO11       0.2342
     19 C           2.9410    1.9502   -0.5253 C.2     5  ASP55       0.2369
     20 CA          3.5526   -2.3626   -0.0675 C.3     2  VAL22       0.1017
     21 CA          1.6755    2.8203   -0.7360 C.3     5  ASP55       0.1047
     22 CB          4.4297   -3.3745   -0.8393 C.3     2  VAL22      -0.0197
     23 CA         -0.2543   -2.5829   -0.2737 C.3     3  LEU33       0.0996
     24 C           2.1349   -2.2633   -0.6685 C.2     2  VAL22       0.2342
     25 CB          1.7785    3.4399   -2.1294 C.3     5  ASP55       0.0138
     26 CA         -1.5068    0.9768    0.4372 C.3     4  TRP44       0.1034
     27 CB         -1.1559   -3.7742    0.0754 C.3     3  LEU33      -0.0236
     28 CG         -2.6464   -3.5628   -0.2666 C.3     3  LEU33      -0.0446
     29 C          -0.2387    1.8498    0.5318 C.2     4  TRP44       0.2343
     30 CB         -2.6427    1.6411   -0.3463 C.3     4  TRP44       0.0013
     31 C          -0.6714   -1.3528    0.5515 C.2     3  LEU33       0.2340
     32 CG1         5.7356   -3.6471   -0.0850 C.3     2  VAL22      -0.0605
     33 CG2         4.7550   -2.9539   -2.2766 C.3     2  VAL22      -0.0605
     34 CG         -3.1490    2.9179    0.2450 C.ar    4  TRP44      -0.0201
     35 CG          0.5269    4.2646   -2.3371 C.2     5  ASP55       0.0440
     36 CD1        -2.8780   -3.3316   -1.7600 C.3     3  LEU33      -0.0626
     37 CD2        -3.4624   -4.7682    0.2042 C.3     3  LEU33      -0.0626
     38 CD2        -3.8667    3.1073    1.4696 C.ar    4  TRP44       0.0029
     39 CD1        -2.9990    4.1659   -0.3244 C.ar    4  TRP44       0.0060
     40 CE2        -4.1192    4.4753    1.5986 C.ar    4  TRP44       0.0467
     41 CE3        -4.3169    2.2458    2.4918 C.ar    4  TRP44      -0.0523
     42 CZ2        -4.7998    5.0226    2.6930 C.ar    4  TRP44      -0.0378
     43 CZ3        -4.9919    2.7779    3.5977 C.ar    4  TRP44      -0.0611
     44 CH2        -5.2301    4.1465    3.6934 C.ar    4  TRP44      -0.0598
@<TRIPOS>BOND
     1     1    18    2
     2     2    19    2
     3     3    24    2
     4     4    29    2
     5     5    31    2
     6     6    35   ar
     7     7    35   ar
     8     8    14    1
     9     8    17    1
    10     8    19   am
    11     9    18   am
    12     9    20    1
    13    10    21    1
    14    10    29   am
    15    11    23    1
    16    11    24   am
    17    12    26    1
    18    12    31   am
    19    13    39   ar
    20    13    40   ar
    21    14    15    1
    22    14    18    1
    23    15    16    1
    24    16    17    1
    25    19    21    1
    26    20    22    1
    27    20    24    1
    28    21    25    1
    29    22    32    1
    30    22    33    1
    31    23    27    1
    32    23    31    1
    33    25    35    1
    34    26    29    1
    35    26    30    1
    36    27    28    1
    37    28    36    1
    38    28    37    1
    39    30    34    1
    40    34    38   ar
    41    34    39   ar
    42    38    40   ar
    43    38    41   ar
    44    40    42   ar
    45    41    43   ar
    46    42    44   ar
    47    43    44   ar
@<TRIPOS>MOLECULE
23693553
 46 48 0 0 0
SMALL
GASTEIGER

@<TRIPOS>ATOM
      1 O           0.1944   -2.2815   -1.6549 O.2     1  LIG11      -0.2526
      2 O           2.5114   -1.4857    2.8480 O.2     1  LIG11      -0.2731
      3 O           0.4790    0.0929   -0.4603 O.2     1  LIG11      -0.2689
      4 O          -0.2797   -0.2916    3.6373 O.co2   1  LIG11      -0.5479
      5 OXT         0.9858    0.9004    5.1481 O.co2   1  LIG11      -0.5479
      6 O          -5.4660    3.5759   -2.2864 O.3     1  LIG11      -0.4515
      7 O          -6.6543    4.6203   -0.5947 O.2     1  LIG11      -0.2227
      8 N          -1.1189   -3.7683   -0.5289 N.am    1  LIG11      -0.2801
      9 N           0.8257   -2.8786    0.4464 N.am    1  LIG11      -0.2879
     10 N           1.4404    0.1396    1.6187 N.am    1  LIG11      -0.2273
     11 N          -1.9742   -0.1321    1.2891 N.3     1  LIG11       0.2276
     12 N          -4.6330    3.5900   -0.1757 N.ar    1  LIG11      -0.2526
     13 C          -1.3456   -4.7425    0.5631 C.3     1  LIG11       0.0249
     14 C          -1.9954   -3.7978   -1.7265 C.3     1  LIG11       0.0249
     15 C          -2.7847   -5.2813    0.6470 C.3     1  LIG11      -0.0344
     16 C          -3.4428   -4.2495   -1.4702 C.3     1  LIG11      -0.0344
     17 C          -3.7811   -4.3337    0.0059 C.3     1  LIG11      -0.0497
     18 CA          2.0914   -2.1408    0.5869 C.3     1  LIG11       0.1019
     19 C           3.8101   -2.5912   -1.3946 C.3     1  LIG11      -0.0356
     20 C           2.8695   -1.6062   -0.6352 C.3     1  LIG11      -0.0210
     21 C           0.0036   -2.9397   -0.6395 C.2     1  LIG11       0.3033
     22 C          -0.3627   -5.9177    0.5051 C.3     1  LIG11      -0.0464
     23 C          -1.3819   -4.6004   -2.8803 C.3     1  LIG11      -0.0464
     24 C           2.0464   -1.1165    1.7574 C.2     1  LIG11       0.2429
     25 C           4.8941   -3.1787   -0.4734 C.3     1  LIG11      -0.0600
     26 C           3.0342   -3.7414   -2.0511 C.3     1  LIG11      -0.0600
     27 C           4.5169   -1.7857   -2.5069 C.3     1  LIG11      -0.0600
     28 CA          1.5236    1.0238    2.8124 C.3     1  LIG11       0.0730
     29 C           2.7905    1.8914    2.8052 C.3     1  LIG11      -0.0286
     30 C           0.3922    0.3409    0.7420 C.2     1  LIG11       0.2708
     31 CA         -0.9419    0.9459    1.2428 C.3     1  LIG11       0.0579
     32 C           4.1609    1.2255    2.8253 C.3     1  LIG11      -0.0513
     33 C          -1.2888    2.0992    0.3014 C.3     1  LIG11       0.0261
     34 C           0.7188    0.4314    4.0153 C.2     1  LIG11       0.0626
     35 C          -2.6446    2.7090    0.4604 C.ar    1  LIG11      -0.0158
     36 C           5.2570    2.1410    2.2510 C.3     1  LIG11      -0.0558
     37 C          -3.2649    3.2780    1.6088 C.ar    1  LIG11       0.0038
     38 C          -3.5121    2.8901   -0.5920 C.ar    1  LIG11       0.0202
     39 C          -4.4965    3.8114    1.1964 C.ar    1  LIG11       0.0598
     40 C           5.3114    3.5335    2.8619 C.3     1  LIG11      -0.0653
     41 C          -2.8901    3.4132    2.9645 C.ar    1  LIG11      -0.0523
     42 C          -5.3524    4.4622    2.1071 C.ar    1  LIG11      -0.0371
     43 C          -3.7457    4.0479    3.8690 C.ar    1  LIG11      -0.0611
     44 C          -5.6909    3.9928   -1.0139 C.2     1  LIG11       0.4196
     45 C          -4.9614    4.5672    3.4435 C.ar    1  LIG11      -0.0598
     46 C          -6.4894    3.9421   -3.2119 C.3     1  LIG11       0.0835
@<TRIPOS>BOND
     1     1    21    2
     2     2    24    2
     3     3    30    2
     4     4    34   ar
     5     5    34   ar
     6     6    44    1
     7     6    46    1
     8     7    44    2
     9     8    13    1
    10     8    14    1
    11     9    21   am
    12    10    24   am
    13    10    30   am
    14    12    39   ar
    15    12    38   ar
    16    12    44   am
    17    13    15    1
    18    13    22    1
    19    14    16    1
    20    14    23    1
    21    15    17    1
    22    16    17    1
    23    18     9    1
    24    18    24    1
    25    18    20    1
    26    19    20    1
    27    19    27    1
    28    19    26    1
    29    19    25    1
    30    21     8   am
    31    28    34    1
    32    28    29    1
    33    28    10    1
    34    29    32    1
    35    31    33    1
    36    31    11    1
    37    31    30    1
    38    32    36    1
    39    33    35    1
    40    35    38   ar
    41    35    37   ar
    42    36    40    1
    43    37    39   ar
    44    37    41   ar
    45    39    42   ar
    46    41    43   ar
    47    42    45   ar
    48    43    45   ar
