@<TRIPOS>MOLECULE
16219006
 44 47 0 0 0
SMALL
GASTEIGER

@<TRIPOS>ATOM
      1 O           4.2213   -0.9862    2.2555 O.2     1  PRO11      -0.2738
      2 O           3.2552    1.1050   -1.3622 O.2     5  ASP55      -0.2735
      3 O           1.9436   -1.8371   -1.7513 O.2     2  VAL22      -0.2738
      4 O          -0.5489    3.0042    1.1337 O.2     4  TRP44      -0.2738
      5 O          -0.6518   -1.2507    1.8135 O.2     3  LEU33      -0.2738
      6 OD1         3.0713    4.9368   -3.3284 O.co2   5  ASP55      -0.5497
      7 OD2         3.5757    4.6640   -1.1217 O.co2   5  ASP55      -0.5497
      8 N           3.4851    1.8359    0.7699 N.am    1  PRO11      -0.2884
      9 N           4.1827   -1.1025   -0.0323 N.am    2  VAL22      -0.3022
     10 N           0.5350    1.9409   -0.5870 N.am    5  ASP55      -0.3021
     11 N           1.2039   -2.7992    0.1820 N.am    3  LEU33      -0.3025
     12 N          -1.0968   -0.3073   -0.2373 N.am    4  TRP44      -0.3022
     13 NE1        -1.9534    1.6747   -4.1226 N.ar    4  TRP44      -0.3604
     14 CA          4.7034    1.0614    0.9939 C.3     1  PRO11       0.1023
     15 CB          5.3130    1.6700    2.2588 C.3     1  PRO11      -0.0243
     16 CG          4.1104    2.2501    2.9944 C.3     1  PRO11      -0.0350
     17 CD          3.2345    2.7597    1.8618 C.3     1  PRO11       0.0156
     18 C           4.3585   -0.4347    1.1647 C.2     1  PRO11       0.2342
     19 C           2.9170    1.9150   -0.4865 C.2     5  ASP55       0.2369
     20 CA          3.6259   -2.4466   -0.0843 C.3     2  VAL22       0.1017
     21 CA          1.6934    2.8446   -0.6799 C.3     5  ASP55       0.1047
     22 CB          4.5256   -3.4170   -0.8816 C.3     2  VAL22      -0.0197
     23 CA         -0.1891   -2.5738   -0.1731 C.3     3  LEU33       0.0996
     24 C           2.1974   -2.3255   -0.6518 C.2     2  VAL22       0.2342
     25 CB          1.7192    3.5067   -2.0476 C.3     5  ASP55       0.0138
     26 CA         -1.5672    0.9835    0.2789 C.3     4  TRP44       0.1034
     27 CB         -1.0691   -3.7725    0.1928 C.3     3  LEU33      -0.0236
     28 CG         -0.7283   -5.0675   -0.5750 C.3     3  LEU33      -0.0446
     29 C          -0.4568    2.0530    0.3579 C.2     4  TRP44       0.2343
     30 CB         -2.7751    1.4978   -0.5251 C.3     4  TRP44       0.0013
     31 C          -0.6645   -1.3212    0.5846 C.2     3  LEU33       0.2340
     32 CG1         4.7641   -3.0129   -2.3387 C.3     2  VAL22      -0.0605
     33 CG2         3.9864   -4.8501   -0.8195 C.3     2  VAL22      -0.0605
     34 CG         -2.4901    1.8344   -1.9628 C.ar    4  TRP44      -0.0201
     35 CG          2.9051    4.4562   -2.1712 C.2     5  ASP55       0.0440
     36 CD1        -1.6868   -6.1827   -0.1513 C.3     3  LEU33      -0.0626
     37 CD2        -0.7854   -4.8912   -2.0942 C.3     3  LEU33      -0.0626
     38 CD2        -2.4262    3.1523   -2.5257 C.ar    4  TRP44       0.0029
     39 CD1        -2.2491    0.9499   -2.9988 C.ar    4  TRP44       0.0060
     40 CE2        -2.0897    3.0178   -3.8721 C.ar    4  TRP44       0.0467
     41 CE3        -2.6062    4.4520   -2.0083 C.ar    4  TRP44      -0.0523
     42 CZ2        -1.9168    4.1135   -4.7256 C.ar    4  TRP44      -0.0378
     43 CZ3        -2.4510    5.5589   -2.8508 C.ar    4  TRP44      -0.0611
     44 CH2        -2.1080    5.3891   -4.1891 C.ar    4  TRP44      -0.0598
@<TRIPOS>BOND
     1     1    18    2
     2     2    19    2
     3     3    24    2
     4     4    29    2
     5     5    31    2
     6     6    35   ar
     7     7    35   ar
     8     8    14    1
     9     8    17    1
    10     8    19   am
    11     9    18   am
    12     9    20    1
    13    10    21    1
    14    10    29   am
    15    11    23    1
    16    11    24   am
    17    12    26    1
    18    12    31   am
    19    13    39   ar
    20    13    40   ar
    21    14    15    1
    22    14    18    1
    23    15    16    1
    24    16    17    1
    25    19    21    1
    26    20    22    1
    27    20    24    1
    28    21    25    1
    29    22    32    1
    30    22    33    1
    31    23    27    1
    32    23    31    1
    33    25    35    1
    34    26    29    1
    35    26    30    1
    36    27    28    1
    37    28    36    1
    38    28    37    1
    39    30    34    1
    40    34    38   ar
    41    34    39   ar
    42    38    40   ar
    43    38    41   ar
    44    40    42   ar
    45    41    43   ar
    46    42    44   ar
    47    43    44   ar
@<TRIPOS>MOLECULE
3047752
 39 43 0 0 0
SMALL
GASTEIGER

@<TRIPOS>ATOM
      1 O           1.2128    2.4631    0.1774 O.co2   1  LIG11      -0.5495
      2 O           2.0725    4.0424   -1.2262 O.co2   1  LIG11      -0.5495
      3 O          -4.2618    5.9148   -2.2516 O.3     1  LIG11      -0.4526
      4 O          -3.5800    6.5908   -4.4682 O.3     1  LIG11      -0.4526
      5 O           5.1741   -0.0126   -6.3000 O.3     1  LIG11      -0.4951
      6 O           3.0488   -4.3359   -2.9246 O.co2   1  LIG11      -0.5495
      7 O           5.2203   -3.9274   -3.4868 O.co2   1  LIG11      -0.5495
      8 N          -0.3295   -1.1239   -2.9295 N.ar    1  LIG11      -0.2556
      9 C           0.7672    2.3148   -2.1550 C.3     1  LIG11       0.0217
     10 C           1.1629    0.8123   -2.2824 C.3     1  LIG11       0.0357
     11 C          -0.7686    2.3958   -1.9255 C.3     1  LIG11       0.0199
     12 C          -1.2370    1.0321   -2.3669 C.ar    1  LIG11      -0.0174
     13 C          -0.1785    0.1688   -2.5841 C.ar    1  LIG11       0.0534
     14 C           2.2308    0.4904   -3.3403 C.ar    1  LIG11      -0.0344
     15 C          -1.4839    3.5258   -2.6608 C.ar    1  LIG11      -0.0356
     16 C           1.4279    2.9881   -0.9570 C.2     1  LIG11       0.0466
     17 C          -2.5325    0.5501   -2.4864 C.ar    1  LIG11      -0.0546
     18 C           3.2086   -0.5250   -3.1546 C.ar    1  LIG11      -0.0395
     19 C           2.2262    1.1851   -4.5692 C.ar    1  LIG11      -0.0542
     20 C          -1.5907   -1.5894   -3.0570 C.ar    1  LIG11       0.0416
     21 C          -2.5555    4.1835   -2.0286 C.ar    1  LIG11      -0.0124
     22 C          -2.7129   -0.7866   -2.8391 C.ar    1  LIG11      -0.0401
     23 C          -1.1323    3.9096   -3.9776 C.ar    1  LIG11      -0.0543
     24 C           3.1634   -1.4653   -1.9494 C.3     1  LIG11      -0.0196
     25 C           4.2120   -0.6806   -4.1352 C.ar    1  LIG11      -0.0165
     26 C          -1.7277   -3.0509   -3.3940 C.3     1  LIG11      -0.0104
     27 C           4.2336   -2.5673   -1.8231 C.3     1  LIG11      -0.0003
     28 C          -3.2027    5.1931   -2.7119 C.ar    1  LIG11       0.1665
     29 C           3.2132    0.9857   -5.5340 C.ar    1  LIG11      -0.0197
     30 C          -1.7890    4.9528   -4.6370 C.ar    1  LIG11      -0.0159
     31 C           4.2339    0.0763   -5.3066 C.ar    1  LIG11       0.1204
     32 C          -2.8229    5.5732   -3.9766 C.ar    1  LIG11       0.1662
     33 C          -1.8572   -3.9479   -2.1578 C.3     1  LIG11      -0.0479
     34 C           4.1263   -3.2772   -0.4693 C.3     1  LIG11      -0.0570
     35 C          -0.5983   -3.9590   -1.2847 C.3     1  LIG11      -0.0556
     36 C           4.1409   -3.7086   -2.8564 C.2     1  LIG11       0.0449
     37 C          -4.4804    6.8046   -3.3645 C.3     1  LIG11       0.2332
     38 C          -0.7394   -4.9158   -0.1114 C.3     1  LIG11      -0.0653
     39 C           6.3528   -0.7345   -5.9595 C.3     1  LIG11       0.0788
@<TRIPOS>BOND
     1     1    16   ar
     2     2    16   ar
     3     3    28    1
     4     3    37    1
     5     4    32    1
     6     4    37    1
     7     5    31    1
     8     5    39    1
     9     6    36   ar
    10     7    36   ar
    11     8    13   ar
    12     8    20   ar
    13     9    10    1
    14     9    11    1
    15     9    16    1
    16    10    13    1
    17    10    14    1
    18    11    12    1
    19    11    15    1
    20    12    13   ar
    21    12    17   ar
    22    14    18   ar
    23    14    19   ar
    24    15    21   ar
    25    15    23   ar
    26    17    22   ar
    27    18    24    1
    28    18    25   ar
    29    19    29   ar
    30    20    22   ar
    31    20    26    1
    32    21    28   ar
    33    23    30   ar
    34    24    27    1
    35    25    31   ar
    36    26    33    1
    37    27    34    1
    38    27    36    1
    39    28    32   ar
    40    29    31   ar
    41    30    32   ar
    42    33    35    1
    43    35    38    1
