@<TRIPOS>MOLECULE
16219006
 44 47 0 0 0
SMALL
GASTEIGER

@<TRIPOS>ATOM
      1 O           3.7044   -0.8540    2.1872 O.2     1  PRO11      -0.2738
      2 O           3.2756    1.2727   -1.4666 O.2     5  ASP55      -0.2735
      3 O           2.1782   -2.0004   -1.7859 O.2     2  VAL22      -0.2738
      4 O          -0.3046    2.8505    1.4262 O.2     4  TRP44      -0.2738
      5 O          -0.2761   -1.1518    1.7814 O.2     3  LEU33      -0.2738
      6 OD1         0.5093    5.1082   -3.4488 O.co2   5  ASP55      -0.5497
      7 OD2        -0.5565    4.4767   -1.5434 O.co2   5  ASP55      -0.5497
      8 N           3.4661    1.9111    0.6899 N.am    1  PRO11      -0.2884
      9 N           4.2874   -1.2237    0.0036 N.am    2  VAL22      -0.3022
     10 N           0.5106    1.9406   -0.5257 N.am    5  ASP55      -0.3021
     11 N           1.2833   -2.7898    0.1719 N.am    3  LEU33      -0.3025
     12 N          -1.0945   -0.2491   -0.1654 N.am    4  TRP44      -0.3022
     13 NE1        -5.6941   -0.3986   -1.2697 N.ar    4  TRP44      -0.3604
     14 CA          4.6129    1.0367    0.9143 C.3     1  PRO11       0.1023
     15 CB          5.2740    1.6047    2.1694 C.3     1  PRO11      -0.0243
     16 CG          4.1186    2.2380    2.9372 C.3     1  PRO11      -0.0350
     17 CD          3.1924    2.7510    1.8435 C.3     1  PRO11       0.0156
     18 C           4.1621   -0.4278    1.1285 C.2     1  PRO11       0.2342
     19 C           2.8724    2.0036   -0.5515 C.2     5  ASP55       0.2369
     20 CA          3.7238   -2.5736   -0.0067 C.3     2  VAL22       0.1017
     21 CA          1.6037    2.8850   -0.7026 C.3     5  ASP55       0.1047
     22 CB          4.5819   -3.5544   -0.8375 C.3     2  VAL22      -0.0197
     23 CA         -0.0803   -2.4747   -0.2342 C.3     3  LEU33       0.0996
     24 C           2.3334   -2.4199   -0.6407 C.2     2  VAL22       0.2342
     25 CB          1.5657    3.5297   -2.0801 C.3     5  ASP55       0.0138
     26 CA         -1.5278    1.0066    0.4583 C.3     4  TRP44       0.1034
     27 CB         -1.0429   -3.6254    0.0728 C.3     3  LEU33      -0.0236
     28 CG         -0.7094   -4.9351   -0.6710 C.3     3  LEU33      -0.0446
     29 C          -0.3715    2.0148    0.5257 C.2     4  TRP44       0.2343
     30 CB         -2.7430    1.5931   -0.2689 C.3     4  TRP44       0.0013
     31 C          -0.4839   -1.2334    0.5707 C.2     3  LEU33       0.2340
     32 CG1         3.9314   -4.9432   -0.9133 C.3     2  VAL22      -0.0605
     33 CG2         5.9888   -3.6983   -0.2475 C.3     2  VAL22      -0.0605
     34 CG         -3.9198    0.6423   -0.3921 C.ar    4  TRP44      -0.0201
     35 CG          0.3931    4.4625   -2.3673 C.2     5  ASP55       0.0440
     36 CD1        -1.6902   -6.0328   -0.2548 C.3     3  LEU33      -0.0626
     37 CD2        -0.7340   -4.7698   -2.1917 C.3     3  LEU33      -0.0626
     38 CD2        -4.3998   -0.3428    0.5449 C.ar    4  TRP44       0.0029
     39 CD1        -4.7563    0.5704   -1.4929 C.ar    4  TRP44       0.0060
     40 CE2        -5.4898   -0.9880   -0.0454 C.ar    4  TRP44       0.0467
     41 CE3        -4.0137   -0.7708    1.8347 C.ar    4  TRP44      -0.0523
     42 CZ2        -6.1896   -2.0319    0.5769 C.ar    4  TRP44      -0.0378
     43 CZ3        -4.6872   -1.8230    2.4643 C.ar    4  TRP44      -0.0611
     44 CH2        -5.7613   -2.4441    1.8416 C.ar    4  TRP44      -0.0598
@<TRIPOS>BOND
     1     1    18    2
     2     2    19    2
     3     3    24    2
     4     4    29    2
     5     5    31    2
     6     6    35   ar
     7     7    35   ar
     8     8    14    1
     9     8    17    1
    10     8    19   am
    11     9    18   am
    12     9    20    1
    13    10    21    1
    14    10    29   am
    15    11    23    1
    16    11    24   am
    17    12    26    1
    18    12    31   am
    19    13    39   ar
    20    13    40   ar
    21    14    15    1
    22    14    18    1
    23    15    16    1
    24    16    17    1
    25    19    21    1
    26    20    22    1
    27    20    24    1
    28    21    25    1
    29    22    32    1
    30    22    33    1
    31    23    27    1
    32    23    31    1
    33    25    35    1
    34    26    29    1
    35    26    30    1
    36    27    28    1
    37    28    36    1
    38    28    37    1
    39    30    34    1
    40    34    38   ar
    41    34    39   ar
    42    38    40   ar
    43    38    41   ar
    44    40    42   ar
    45    41    43   ar
    46    42    44   ar
    47    43    44   ar
@<TRIPOS>MOLECULE
9939443
 43 47 0 0 0
SMALL
GASTEIGER

@<TRIPOS>ATOM
      1 S          -5.3311   -1.1774   -4.5368 S.O2    1  LIG11       0.0908
      2 O          -4.5768    2.1784   -3.2688 O.3     1  LIG11      -0.4435
      3 O          -6.2475   -2.2369   -4.9151 O.2     1  LIG11      -0.1484
      4 O          -4.7262   -0.3562   -5.5633 O.2     1  LIG11      -0.1484
      5 O          -2.8735    2.1202   -1.0483 O.3     1  LIG11      -0.4715
      6 O          -4.9112    3.9827   -5.5609 O.3     1  LIG11      -0.4914
      7 O          -0.4572    3.6852   -0.5623 O.3     1  LIG11      -0.3917
      8 N          -6.2541   -0.1815   -3.5048 N.pl3   1  LIG11      -0.1950
      9 N          -3.0300   -1.0792   -3.1925 N.ar    1  LIG11      -0.2351
     10 N          -5.8627   -0.6347   -1.3275 N.ar    1  LIG11      -0.2073
     11 N          -4.1625    0.4247   -0.0611 N.ar    1  LIG11      -0.1899
     12 N          -6.0723   -3.0675    3.0946 N.ar    1  LIG11      -0.2552
     13 N          -4.8620   -2.5764    5.6599 N.ar    1  LIG11      -0.5621
     14 N          -3.4161   -1.1059    4.7323 N.ar    1  LIG11      -0.1535
     15 N          -3.9661   -2.0768    6.5180 N.ar    1  LIG11      -0.3597
     16 N          -3.0866   -1.2056    6.0120 N.ar    1  LIG11      -0.0878
     17 C          -0.6869   -3.4394   -1.3598 C.3     1  LIG11      -0.0201
     18 C          -1.8977   -2.9656   -2.1488 C.ar    1  LIG11      -0.0266
     19 C          -0.5964   -4.9561   -1.1521 C.3     1  LIG11      -0.0586
     20 C          -0.6057   -2.7450    0.0074 C.3     1  LIG11      -0.0586
     21 C          -4.0093   -1.9357   -3.5798 C.ar    1  LIG11       0.1969
     22 C          -2.9272   -3.8083   -2.5921 C.ar    1  LIG11      -0.0535
     23 C          -2.0045   -1.6176   -2.4979 C.ar    1  LIG11       0.0332
     24 C          -4.0003   -3.2952   -3.3236 C.ar    1  LIG11      -0.0160
     25 C          -5.6106    0.2393   -2.3168 C.ar    1  LIG11       0.1882
     26 C          -4.7290    1.2940   -2.2408 C.ar    1  LIG11       0.2307
     27 C          -3.9464    1.2568   -1.1054 C.ar    1  LIG11       0.2641
     28 C          -5.1456   -0.4769   -0.2048 C.ar    1  LIG11       0.1659
     29 C          -5.4485   -1.3735    0.9252 C.ar    1  LIG11       0.0227
     30 C          -4.9402    3.5077   -3.0994 C.ar    1  LIG11       0.1702
     31 C          -4.8074   -1.2378    2.1675 C.ar    1  LIG11      -0.0252
     32 C          -6.4083   -2.3908    0.8119 C.ar    1  LIG11      -0.0328
     33 C          -1.8845    1.7868   -0.0685 C.3     1  LIG11       0.1143
     34 C          -5.0425    4.3278   -4.2411 C.ar    1  LIG11       0.1621
     35 C          -5.1419   -2.0874    3.2213 C.ar    1  LIG11       0.0708
     36 C          -5.1502    4.1043   -1.8415 C.ar    1  LIG11      -0.0157
     37 C          -6.6812   -3.1976    1.9023 C.ar    1  LIG11       0.0289
     38 C          -0.5311    2.2635   -0.5903 C.3     1  LIG11       0.0783
     39 C          -5.2875    5.7047   -4.0950 C.ar    1  LIG11      -0.0163
     40 C          -5.3940    5.4767   -1.7131 C.ar    1  LIG11      -0.0581
     41 C          -5.4555    6.2808   -2.8406 C.ar    1  LIG11      -0.0581
     42 C          -4.4953   -1.9426    4.5279 C.ar    1  LIG11       0.0207
     43 C          -5.1009    2.6226   -5.9124 C.3     1  LIG11       0.0790
@<TRIPOS>BOND
     1     1    21    1
     2     1     8    1
     3     1     4    2
     4     1     3    2
     5     2    26    1
     6     2    30    1
     7     5    27    1
     8     5    33    1
     9     6    34    1
    10     6    43    1
    11     7    38    1
    12     8    25    1
    13     9    23   ar
    14     9    21   ar
    15    10    25   ar
    16    10    28   ar
    17    11    27   ar
    18    11    28   ar
    19    12    37   ar
    20    12    35   ar
    21    13    15   ar
    22    13    42   ar
    23    14    42   ar
    24    14    16   ar
    25    15    16   ar
    26    17    18    1
    27    17    20    1
    28    17    19    1
    29    18    23   ar
    30    18    22   ar
    31    21    24   ar
    32    22    24   ar
    33    25    26   ar
    34    26    27   ar
    35    28    29    1
    36    29    31   ar
    37    29    32   ar
    38    30    36   ar
    39    30    34   ar
    40    31    35   ar
    41    32    37   ar
    42    33    38    1
    43    34    39   ar
    44    35    42    1
    45    36    40   ar
    46    39    41   ar
    47    40    41   ar
