@<TRIPOS>MOLECULE
16219006
 44 47 0 0 0
SMALL
GASTEIGER

@<TRIPOS>ATOM
      1 O           4.1585   -1.0018    2.2445 O.2     1  PRO11      -0.2738
      2 O           3.1807    1.0765   -1.3501 O.2     5  ASP55      -0.2735
      3 O           1.9887   -1.8741   -1.8050 O.2     2  VAL22      -0.2738
      4 O          -0.4537    2.9729    1.2651 O.2     4  TRP44      -0.2738
      5 O          -0.2975   -1.1453    1.7344 O.2     3  LEU33      -0.2738
      6 OD1         3.4957    4.7352   -1.0446 O.co2   5  ASP55      -0.5497
      7 OD2         3.1976    4.8166   -3.3040 O.co2   5  ASP55      -0.5497
      8 N           3.4550    1.8241    0.7690 N.am    1  PRO11      -0.2884
      9 N           4.1715   -1.1390   -0.0437 N.am    2  VAL22      -0.3022
     10 N           0.4730    1.9816   -0.5892 N.am    5  ASP55      -0.3021
     11 N           1.1920   -2.8556    0.0984 N.am    3  LEU33      -0.3025
     12 N          -1.1076   -0.2508   -0.2175 N.am    4  TRP44      -0.3022
     13 NE1        -5.4990   -0.6286   -1.3433 N.ar    4  TRP44      -0.3604
     14 CA          4.6677    1.0356    0.9767 C.3     1  PRO11       0.1023
     15 CB          5.3023    1.6384    2.2324 C.3     1  PRO11      -0.0243
     16 CG          4.1201    2.2440    2.9803 C.3     1  PRO11      -0.0350
     17 CD          3.2385    2.7620    1.8566 C.3     1  PRO11       0.0156
     18 C           4.3191   -0.4603    1.1520 C.2     1  PRO11       0.2342
     19 C           2.8677    1.8979   -0.4766 C.2     5  ASP55       0.2369
     20 CA          3.6218   -2.4883   -0.0965 C.3     2  VAL22       0.1017
     21 CA          1.6613    2.8502   -0.6703 C.3     5  ASP55       0.1047
     22 CB          4.5416   -3.4625   -0.8661 C.3     2  VAL22      -0.0197
     23 CA         -0.1870   -2.5269   -0.2525 C.3     3  LEU33       0.0996
     24 C           2.2096   -2.3742   -0.7035 C.2     2  VAL22       0.2342
     25 CB          1.7136    3.5168   -2.0343 C.3     5  ASP55       0.0138
     26 CA         -1.5515    0.9998    0.4062 C.3     4  TRP44       0.1034
     27 CB         -1.1326   -3.6676    0.1389 C.3     3  LEU33      -0.0236
     28 CG         -2.6059   -3.4424   -0.2597 C.3     3  LEU33      -0.0446
     29 C          -0.4252    2.0497    0.4536 C.2     4  TRP44       0.2343
     30 CB         -2.7483    1.6139   -0.3380 C.3     4  TRP44       0.0013
     31 C          -0.5255   -1.2468    0.5299 C.2     3  LEU33       0.2340
     32 CG1         4.8055   -3.0718   -2.3227 C.3     2  VAL22      -0.0605
     33 CG2         4.0057   -4.8966   -0.8005 C.3     2  VAL22      -0.0605
     34 CG         -3.9245    0.6859   -0.4648 C.ar    4  TRP44      -0.0201
     35 CG          2.9240    4.4393   -2.1292 C.2     5  ASP55       0.0440
     36 CD1        -2.7883   -3.2781   -1.7695 C.3     3  LEU33      -0.0626
     37 CD2        -3.4616   -4.6104    0.2353 C.3     3  LEU33      -0.0626
     38 CD2        -4.7261    0.1507    0.5965 C.ar    4  TRP44       0.0029
     39 CD1        -4.4409    0.1851   -1.6450 C.ar    4  TRP44       0.0060
     40 CE2        -5.6887   -0.6777    0.0175 C.ar    4  TRP44       0.0467
     41 CE3        -4.7169    0.2852    2.0003 C.ar    4  TRP44      -0.0523
     42 CZ2        -6.6334   -1.3860    0.7707 C.ar    4  TRP44      -0.0378
     43 CZ3        -5.6526   -0.4168    2.7687 C.ar    4  TRP44      -0.0611
     44 CH2        -6.5950   -1.2415    2.1602 C.ar    4  TRP44      -0.0598
@<TRIPOS>BOND
     1     1    18    2
     2     2    19    2
     3     3    24    2
     4     4    29    2
     5     5    31    2
     6     6    35   ar
     7     7    35   ar
     8     8    14    1
     9     8    17    1
    10     8    19   am
    11     9    18   am
    12     9    20    1
    13    10    21    1
    14    10    29   am
    15    11    23    1
    16    11    24   am
    17    12    26    1
    18    12    31   am
    19    13    39   ar
    20    13    40   ar
    21    14    15    1
    22    14    18    1
    23    15    16    1
    24    16    17    1
    25    19    21    1
    26    20    22    1
    27    20    24    1
    28    21    25    1
    29    22    32    1
    30    22    33    1
    31    23    27    1
    32    23    31    1
    33    25    35    1
    34    26    29    1
    35    26    30    1
    36    27    28    1
    37    28    36    1
    38    28    37    1
    39    30    34    1
    40    34    38   ar
    41    34    39   ar
    42    38    40   ar
    43    38    41   ar
    44    40    42   ar
    45    41    43   ar
    46    42    44   ar
    47    43    44   ar
@<TRIPOS>MOLECULE
01178588C
 32 34 0 0 0
SMALL
GASTEIGER

@<TRIPOS>ATOM
      1 S          -7.0363   -1.4769    4.8248 S.O2    1  LIG11       0.0756
      2 C          -7.0980    0.2132    4.3148 C.ar    1  LIG11       0.1344
      3 N          -7.7478   -1.4681    6.3699 N.pl3   1  LIG11      -0.1951
      4 O          -5.6509   -1.8705    4.9238 O.2     1  LIG11      -0.1499
      5 O          -8.0088   -2.1994    4.0313 O.2     1  LIG11      -0.1499
      6 C          -6.5779    0.6220    3.0855 C.ar    1  LIG11       0.0975
      7 C          -7.6355    1.1796    5.1820 C.ar    1  LIG11      -0.0315
      8 C          -6.9764   -2.1187    7.3656 C.ar    1  LIG11       0.2006
      9 C          -5.9143   -0.2099    2.0571 C.ar    1  LIG11       0.0023
     10 N          -6.6055    1.9457    2.7295 N.ar    1  LIG11      -0.2530
     11 C          -7.6549    2.5179    4.8085 C.ar    1  LIG11      -0.0417
     12 C          -5.8006   -1.6112    7.9303 C.ar    1  LIG11       0.2574
     13 N          -7.5253   -3.2945    7.7328 N.ar    1  LIG11      -0.2325
     14 C          -6.4961   -1.3491    1.4831 C.ar    1  LIG11      -0.0523
     15 C          -4.6706    0.1980    1.5372 C.ar    1  LIG11      -0.0523
     16 C          -7.1339    2.8497    3.5780 C.ar    1  LIG11       0.0284
     17 N          -5.1266   -2.2861    8.8955 N.ar    1  LIG11      -0.2137
     18 O          -5.3840   -0.3461    7.5642 O.3     1  LIG11      -0.4773
     19 C          -6.8203   -3.9754    8.6666 C.ar    1  LIG11       0.0510
     20 C          -5.8405   -2.0802    0.4806 C.ar    1  LIG11      -0.0579
     21 C          -4.0315   -0.5062    0.5108 C.ar    1  LIG11      -0.0579
     22 C          -5.6453   -3.4917    9.2416 C.ar    1  LIG11       0.0602
     23 C          -4.0441   -0.0779    7.9623 C.3     1  LIG11       0.0805
     24 C          -4.6013   -1.6654   -0.0181 C.ar    1  LIG11      -0.0465
     25 C          -4.9124   -4.3052   10.2618 C.3     1  LIG11      -0.0208
     26 C          -3.9254   -2.4249   -1.1452 C.3     1  LIG11      -0.0174
     27 C          -2.6926   -3.2819   -0.7745 C.3     1  LIG11       0.0085
     28 C          -2.2483   -4.0484   -2.0571 C.2     1  LIG11       0.0477
     29 C          -1.4596   -2.4373   -0.4283 C.3     1  LIG11      -0.0544
     30 C          -2.9964   -4.2601    0.3660 C.3     1  LIG11      -0.0544
     31 O          -2.3754   -3.4198   -3.1482 O.co2   1  LIG11      -0.5493
     32 O          -1.7761   -5.2076   -1.8766 O.co2   1  LIG11      -0.5493
@<TRIPOS>BOND
     1     1     5    2
     2     1     4    2
     3     1     3    1
     4     1     2    1
     5     2     6   ar
     6     2     7   ar
     7     3     8    1
     8     6    10   ar
     9     6     9    1
    10     7    11   ar
    11     8    12   ar
    12     8    13   ar
    13     9    14   ar
    14     9    15   ar
    15    10    16   ar
    16    11    16   ar
    17    12    17   ar
    18    12    18    1
    19    13    19   ar
    20    14    20   ar
    21    15    21   ar
    22    17    22   ar
    23    18    23    1
    24    19    22   ar
    25    20    24   ar
    26    21    24   ar
    27    22    25    1
    28    24    26    1
    29    26    27    1
    30    27    30    1
    31    27    29    1
    32    27    28    1
    33    28    32   ar
    34    28    31   ar
