@<TRIPOS>MOLECULE
16219006
 44 47 0 0 0
SMALL
GASTEIGER

@<TRIPOS>ATOM
      1 O           4.1585   -1.0018    2.2445 O.2     1  PRO11      -0.2738
      2 O           3.1807    1.0765   -1.3501 O.2     5  ASP55      -0.2735
      3 O           1.9887   -1.8741   -1.8050 O.2     2  VAL22      -0.2738
      4 O          -0.4537    2.9729    1.2651 O.2     4  TRP44      -0.2738
      5 O          -0.2975   -1.1453    1.7344 O.2     3  LEU33      -0.2738
      6 OD1         3.4957    4.7352   -1.0446 O.co2   5  ASP55      -0.5497
      7 OD2         3.1976    4.8166   -3.3040 O.co2   5  ASP55      -0.5497
      8 N           3.4550    1.8241    0.7690 N.am    1  PRO11      -0.2884
      9 N           4.1715   -1.1390   -0.0437 N.am    2  VAL22      -0.3022
     10 N           0.4730    1.9816   -0.5892 N.am    5  ASP55      -0.3021
     11 N           1.1920   -2.8556    0.0984 N.am    3  LEU33      -0.3025
     12 N          -1.1076   -0.2508   -0.2175 N.am    4  TRP44      -0.3022
     13 NE1        -5.4990   -0.6286   -1.3433 N.ar    4  TRP44      -0.3604
     14 CA          4.6677    1.0356    0.9767 C.3     1  PRO11       0.1023
     15 CB          5.3023    1.6384    2.2324 C.3     1  PRO11      -0.0243
     16 CG          4.1201    2.2440    2.9803 C.3     1  PRO11      -0.0350
     17 CD          3.2385    2.7620    1.8566 C.3     1  PRO11       0.0156
     18 C           4.3191   -0.4603    1.1520 C.2     1  PRO11       0.2342
     19 C           2.8677    1.8979   -0.4766 C.2     5  ASP55       0.2369
     20 CA          3.6218   -2.4883   -0.0965 C.3     2  VAL22       0.1017
     21 CA          1.6613    2.8502   -0.6703 C.3     5  ASP55       0.1047
     22 CB          4.5416   -3.4625   -0.8661 C.3     2  VAL22      -0.0197
     23 CA         -0.1870   -2.5269   -0.2525 C.3     3  LEU33       0.0996
     24 C           2.2096   -2.3742   -0.7035 C.2     2  VAL22       0.2342
     25 CB          1.7136    3.5168   -2.0343 C.3     5  ASP55       0.0138
     26 CA         -1.5515    0.9998    0.4062 C.3     4  TRP44       0.1034
     27 CB         -1.1326   -3.6676    0.1389 C.3     3  LEU33      -0.0236
     28 CG         -2.6059   -3.4424   -0.2597 C.3     3  LEU33      -0.0446
     29 C          -0.4252    2.0497    0.4536 C.2     4  TRP44       0.2343
     30 CB         -2.7483    1.6139   -0.3380 C.3     4  TRP44       0.0013
     31 C          -0.5255   -1.2468    0.5299 C.2     3  LEU33       0.2340
     32 CG1         4.8055   -3.0718   -2.3227 C.3     2  VAL22      -0.0605
     33 CG2         4.0057   -4.8966   -0.8005 C.3     2  VAL22      -0.0605
     34 CG         -3.9245    0.6859   -0.4648 C.ar    4  TRP44      -0.0201
     35 CG          2.9240    4.4393   -2.1292 C.2     5  ASP55       0.0440
     36 CD1        -2.7883   -3.2781   -1.7695 C.3     3  LEU33      -0.0626
     37 CD2        -3.4616   -4.6104    0.2353 C.3     3  LEU33      -0.0626
     38 CD2        -4.7261    0.1507    0.5965 C.ar    4  TRP44       0.0029
     39 CD1        -4.4409    0.1851   -1.6450 C.ar    4  TRP44       0.0060
     40 CE2        -5.6887   -0.6777    0.0175 C.ar    4  TRP44       0.0467
     41 CE3        -4.7169    0.2852    2.0003 C.ar    4  TRP44      -0.0523
     42 CZ2        -6.6334   -1.3860    0.7707 C.ar    4  TRP44      -0.0378
     43 CZ3        -5.6526   -0.4168    2.7687 C.ar    4  TRP44      -0.0611
     44 CH2        -6.5950   -1.2415    2.1602 C.ar    4  TRP44      -0.0598
@<TRIPOS>BOND
     1     1    18    2
     2     2    19    2
     3     3    24    2
     4     4    29    2
     5     5    31    2
     6     6    35   ar
     7     7    35   ar
     8     8    14    1
     9     8    17    1
    10     8    19   am
    11     9    18   am
    12     9    20    1
    13    10    21    1
    14    10    29   am
    15    11    23    1
    16    11    24   am
    17    12    26    1
    18    12    31   am
    19    13    39   ar
    20    13    40   ar
    21    14    15    1
    22    14    18    1
    23    15    16    1
    24    16    17    1
    25    19    21    1
    26    20    22    1
    27    20    24    1
    28    21    25    1
    29    22    32    1
    30    22    33    1
    31    23    27    1
    32    23    31    1
    33    25    35    1
    34    26    29    1
    35    26    30    1
    36    27    28    1
    37    28    36    1
    38    28    37    1
    39    30    34    1
    40    34    38   ar
    41    34    39   ar
    42    38    40   ar
    43    38    41   ar
    44    40    42   ar
    45    41    43   ar
    46    42    44   ar
    47    43    44   ar
@<TRIPOS>MOLECULE
9912992
 34 37 0 0 0
SMALL
GASTEIGER

@<TRIPOS>ATOM
      1 S          -6.4456    1.0757   -4.7418 S.O2    1  LIG11       0.0908
      2 O          -5.6153    0.0282   -1.2934 O.3     1  LIG11      -0.4435
      3 O          -3.4889   -1.8571   -0.9778 O.3     1  LIG11      -0.4771
      4 O          -5.8738    1.4751   -6.0106 O.2     1  LIG11      -0.1484
      5 O          -7.8034    1.4658   -4.4001 O.2     1  LIG11      -0.1484
      6 O          -3.7128    1.4089    0.2931 O.3     1  LIG11      -0.4914
      7 N          -5.4964    1.6835   -3.4722 N.pl3   1  LIG11      -0.1950
      8 N          -3.3270    0.9745   -3.9378 N.ar    1  LIG11      -0.2073
      9 N          -2.3042   -0.7833   -2.6925 N.ar    1  LIG11      -0.1899
     10 N          -5.2888   -1.2834   -5.2024 N.ar    1  LIG11      -0.2351
     11 N           1.2330    0.4608   -6.0688 N.ar    1  LIG11      -0.2632
     12 C          -4.3752    0.8899   -3.1079 C.ar    1  LIG11       0.1882
     13 C          -4.4678    0.0169   -2.0411 C.ar    1  LIG11       0.2307
     14 C          -6.3665   -0.7174   -4.5992 C.ar    1  LIG11       0.1969
     15 C          -3.4030   -0.8477   -1.9164 C.ar    1  LIG11       0.2638
     16 C          -2.3106    0.1401   -3.6739 C.ar    1  LIG11       0.1659
     17 C          -7.3046   -1.4100   -3.8495 C.ar    1  LIG11      -0.0160
     18 C          -1.1019    0.2461   -4.4996 C.ar    1  LIG11       0.0222
     19 C          -5.5173   -0.1262    0.0731 C.ar    1  LIG11       0.1702
     20 C          -6.0009   -3.4002   -4.2776 C.ar    1  LIG11      -0.0322
     21 C          -7.1065   -2.7793   -3.6854 C.ar    1  LIG11      -0.0541
     22 C          -5.1419   -2.6127   -5.0383 C.ar    1  LIG11       0.0327
     23 C          -4.5707    0.5196    0.8868 C.ar    1  LIG11       0.1621
     24 C          -6.4812   -0.9655    0.6415 C.ar    1  LIG11      -0.0157
     25 C          -5.7511   -4.8688   -4.1373 C.3     1  LIG11      -0.0383
     26 C           0.1607   -0.0730   -3.9782 C.ar    1  LIG11      -0.0329
     27 C          -1.1599    0.6765   -5.8314 C.ar    1  LIG11      -0.0329
     28 C          -4.5837    0.2792    2.2648 C.ar    1  LIG11      -0.0163
     29 C          -6.4813   -1.2022    2.0141 C.ar    1  LIG11      -0.0581
     30 C          -5.5287   -0.5868    2.8230 C.ar    1  LIG11      -0.0581
     31 C           1.2793    0.0537   -4.7849 C.ar    1  LIG11       0.0282
     32 C           0.0136    0.7620   -6.5636 C.ar    1  LIG11       0.0282
     33 C          -2.3733   -2.7384   -0.9705 C.3     1  LIG11       0.0805
     34 C          -2.4115    1.4775    0.8708 C.3     1  LIG11       0.0790
@<TRIPOS>BOND
     1     1     4    2
     2     1     5    2
     3     1     7    1
     4     1    14    1
     5     2    13    1
     6     2    19    1
     7     3    15    1
     8     3    33    1
     9     6    23    1
    10     6    34    1
    11     7    12    1
    12     8    12   ar
    13     8    16   ar
    14     9    15   ar
    15     9    16   ar
    16    10    14   ar
    17    10    22   ar
    18    11    31   ar
    19    11    32   ar
    20    12    13   ar
    21    13    15   ar
    22    14    17   ar
    23    16    18    1
    24    17    21   ar
    25    18    26   ar
    26    18    27   ar
    27    19    23   ar
    28    19    24   ar
    29    20    21   ar
    30    20    22   ar
    31    20    25    1
    32    23    28   ar
    33    24    29   ar
    34    26    31   ar
    35    27    32   ar
    36    28    30   ar
    37    29    30   ar
