@<TRIPOS>MOLECULE
16219006
 44 47 0 0 0
SMALL
GASTEIGER

@<TRIPOS>ATOM
      1 O           4.3586   -1.0577    2.2239 O.2     1  PRO11      -0.2738
      2 O           3.1691    1.0531   -1.3475 O.2     5  ASP55      -0.2735
      3 O           2.0418   -2.1972   -1.9006 O.2     2  VAL22      -0.2738
      4 O          -0.4848    2.9439    1.2396 O.2     4  TRP44      -0.2738
      5 O          -0.1776   -1.0733    1.7469 O.2     3  LEU33      -0.2738
      6 OD1         3.5656    4.6081   -1.0946 O.co2   5  ASP55      -0.5497
      7 OD2         3.0320    4.9705   -3.2821 O.co2   5  ASP55      -0.5497
      8 N           3.4228    1.7983    0.7792 N.am    1  PRO11      -0.2884
      9 N           4.1406   -1.1025   -0.0538 N.am    2  VAL22      -0.3022
     10 N           0.4596    1.9519   -0.6049 N.am    5  ASP55      -0.3021
     11 N           1.3080   -2.8060    0.1758 N.am    3  LEU33      -0.3025
     12 N          -1.0921   -0.3074   -0.2070 N.am    4  TRP44      -0.3022
     13 NE1        -5.4750   -0.7353   -1.3584 N.ar    4  TRP44      -0.3604
     14 CA          4.6591    1.0471    0.9953 C.3     1  PRO11       0.1023
     15 CB          5.2633    1.6632    2.2602 C.3     1  PRO11      -0.0243
     16 CG          4.0534    2.2194    3.0008 C.3     1  PRO11      -0.0350
     17 CD          3.1717    2.7234    1.8707 C.3     1  PRO11       0.0156
     18 C           4.3736   -0.4649    1.1467 C.2     1  PRO11       0.2342
     19 C           2.8504    1.8747   -0.4748 C.2     5  ASP55       0.2369
     20 CA          3.7241   -2.4939   -0.1472 C.3     2  VAL22       0.1017
     21 CA          1.6448    2.8248   -0.6818 C.3     5  ASP55       0.1047
     22 CB          4.7448   -3.3400   -0.9392 C.3     2  VAL22      -0.0197
     23 CA         -0.0876   -2.5579   -0.1606 C.3     3  LEU33       0.0996
     24 C           2.2990   -2.5001   -0.7377 C.2     2  VAL22       0.2342
     25 CB          1.7019    3.4845   -2.0491 C.3     5  ASP55       0.0138
     26 CA         -1.5564    0.9522    0.3871 C.3     4  TRP44       0.1034
     27 CB         -1.0203   -3.6719    0.3349 C.3     3  LEU33      -0.0236
     28 CG         -0.9920   -4.9569   -0.5204 C.3     3  LEU33      -0.0446
     29 C          -0.4428    2.0158    0.4336 C.2     4  TRP44       0.2343
     30 CB         -2.7478    1.5449   -0.3819 C.3     4  TRP44       0.0013
     31 C          -0.4467   -1.2477    0.5602 C.2     3  LEU33       0.2340
     32 CG1         5.0027   -2.8639   -2.3713 C.3     2  VAL22      -0.0605
     33 CG2         4.3511   -4.8198   -0.9436 C.3     2  VAL22      -0.0605
     34 CG         -3.9169    0.6082   -0.4979 C.ar    4  TRP44      -0.0201
     35 CG          2.8853    4.4409   -2.1445 C.2     5  ASP55       0.0440
     36 CD1         0.3228   -5.7277   -0.4010 C.3     3  LEU33      -0.0626
     37 CD2        -2.1508   -5.8728   -0.1145 C.3     3  LEU33      -0.0626
     38 CD2        -4.7354    0.1077    0.5671 C.ar    4  TRP44       0.0029
     39 CD1        -4.4115    0.0670   -1.6695 C.ar    4  TRP44       0.0060
     40 CE2        -5.6904   -0.7368   -0.0007 C.ar    4  TRP44       0.0467
     41 CE3        -4.7510    0.2900    1.9656 C.ar    4  TRP44      -0.0523
     42 CZ2        -6.6534   -1.4133    0.7586 C.ar    4  TRP44      -0.0378
     43 CZ3        -5.7038   -0.3818    2.7404 C.ar    4  TRP44      -0.0611
     44 CH2        -6.6397   -1.2217    2.1431 C.ar    4  TRP44      -0.0598
@<TRIPOS>BOND
     1     1    18    2
     2     2    19    2
     3     3    24    2
     4     4    29    2
     5     5    31    2
     6     6    35   ar
     7     7    35   ar
     8     8    14    1
     9     8    17    1
    10     8    19   am
    11     9    18   am
    12     9    20    1
    13    10    21    1
    14    10    29   am
    15    11    23    1
    16    11    24   am
    17    12    26    1
    18    12    31   am
    19    13    39   ar
    20    13    40   ar
    21    14    15    1
    22    14    18    1
    23    15    16    1
    24    16    17    1
    25    19    21    1
    26    20    22    1
    27    20    24    1
    28    21    25    1
    29    22    32    1
    30    22    33    1
    31    23    27    1
    32    23    31    1
    33    25    35    1
    34    26    29    1
    35    26    30    1
    36    27    28    1
    37    28    36    1
    38    28    37    1
    39    30    34    1
    40    34    38   ar
    41    34    39   ar
    42    38    40   ar
    43    38    41   ar
    44    40    42   ar
    45    41    43   ar
    46    42    44   ar
    47    43    44   ar
@<TRIPOS>MOLECULE
01479498K
 34 38 0 0 0
SMALL
GASTEIGER

@<TRIPOS>ATOM
      1 C          -2.2532    0.7261    5.1437 C.3     1  LIG11       0.1526
      2 C          -3.2847    0.7079    4.0518 C.2     1  LIG11       0.0278
      3 C          -0.9771    1.4990    4.7734 C.ar    1  LIG11       0.0009
      4 O          -1.9226   -0.5944    5.6580 O.3     1  LIG11      -0.4789
      5 C          -3.5249   -0.3662    3.2769 C.2     1  LIG11       0.0016
      6 C          -4.0813    2.0054    3.9558 C.2     1  LIG11       0.0721
      7 C           0.1705    0.8651    4.2614 C.ar    1  LIG11      -0.0091
      8 C          -0.9625    2.9110    4.9119 C.ar    1  LIG11      -0.0511
      9 C          -1.9194   -1.5975    4.7259 C.ar    1  LIG11       0.1298
     10 C          -2.6339   -1.5196    3.5288 C.ar    1  LIG11       0.0283
     11 C          -4.5962   -0.3581    2.2599 C.ar    1  LIG11      -0.0165
     12 O          -3.8590    2.7080    2.9304 O.co2   1  LIG11      -0.5448
     13 O          -4.7941    2.2592    4.9683 O.co2   1  LIG11      -0.5448
     14 C           1.2647    1.6363    3.9310 C.ar    1  LIG11       0.1666
     15 C           0.1621    3.6703    4.5662 C.ar    1  LIG11      -0.0158
     16 C          -1.1052   -2.6955    5.0027 C.ar    1  LIG11      -0.0158
     17 C          -2.4587   -2.5330    2.5732 C.ar    1  LIG11      -0.0087
     18 C          -5.8522   -0.8920    2.5612 C.ar    1  LIG11      -0.0505
     19 C          -4.3465    0.1140    0.9675 C.ar    1  LIG11      -0.0505
     20 C           1.2621    3.0020    4.0803 C.ar    1  LIG11       0.1662
     21 O           2.4406    1.1690    3.4291 O.3     1  LIG11      -0.4526
     22 C          -0.9152   -3.6758    4.0302 C.ar    1  LIG11      -0.0164
     23 C          -1.5520   -3.5708    2.7930 C.ar    1  LIG11       0.1217
     24 C          -6.8310   -0.9855    1.5684 C.ar    1  LIG11      -0.0194
     25 C          -5.3251    0.0132   -0.0272 C.ar    1  LIG11      -0.0194
     26 O           2.4364    3.5686    3.6907 O.3     1  LIG11      -0.4526
     27 C           3.1619    2.4028    3.2517 C.3     1  LIG11       0.2332
     28 O          -1.1916   -4.5182    1.8746 O.3     1  LIG11      -0.4893
     29 C          -6.5649   -0.5579    0.2652 C.ar    1  LIG11       0.1201
     30 C          -1.3809   -4.2195    0.4833 C.3     1  LIG11       0.0946
     31 O          -7.5910   -0.7414   -0.6234 O.3     1  LIG11      -0.4951
     32 C          -0.9857   -5.4847   -0.2780 C.3     1  LIG11      -0.0281
     33 C          -0.4980   -3.0604    0.0118 C.3     1  LIG11      -0.0281
     34 C          -7.2668   -0.5729   -1.9971 C.3     1  LIG11       0.0788
@<TRIPOS>BOND
     1     1     4    1
     2     1     2    1
     3     1     3    1
     4     2     5    2
     5     2     6    1
     6     3     8   ar
     7     3     7   ar
     8     4     9    1
     9     5    10    1
    10     5    11    1
    11     6    13   ar
    12     6    12   ar
    13     7    14   ar
    14     8    15   ar
    15     9    16   ar
    16     9    10   ar
    17    10    17   ar
    18    11    18   ar
    19    11    19   ar
    20    14    21    1
    21    14    20   ar
    22    15    20   ar
    23    16    22   ar
    24    17    23   ar
    25    18    24   ar
    26    19    25   ar
    27    20    26    1
    28    21    27    1
    29    22    23   ar
    30    23    28    1
    31    24    29   ar
    32    25    29   ar
    33    26    27    1
    34    28    30    1
    35    29    31    1
    36    30    33    1
    37    30    32    1
    38    31    34    1
