@<TRIPOS>MOLECULE
16219006
 44 47 0 0 0
SMALL
GASTEIGER

@<TRIPOS>ATOM
      1 O           4.1585   -1.0018    2.2445 O.2     1  PRO11      -0.2738
      2 O           3.1807    1.0765   -1.3501 O.2     5  ASP55      -0.2735
      3 O           1.9887   -1.8741   -1.8050 O.2     2  VAL22      -0.2738
      4 O          -0.4537    2.9729    1.2651 O.2     4  TRP44      -0.2738
      5 O          -0.2975   -1.1453    1.7344 O.2     3  LEU33      -0.2738
      6 OD1         3.4957    4.7352   -1.0446 O.co2   5  ASP55      -0.5497
      7 OD2         3.1976    4.8166   -3.3040 O.co2   5  ASP55      -0.5497
      8 N           3.4550    1.8241    0.7690 N.am    1  PRO11      -0.2884
      9 N           4.1715   -1.1390   -0.0437 N.am    2  VAL22      -0.3022
     10 N           0.4730    1.9816   -0.5892 N.am    5  ASP55      -0.3021
     11 N           1.1920   -2.8556    0.0984 N.am    3  LEU33      -0.3025
     12 N          -1.1076   -0.2508   -0.2175 N.am    4  TRP44      -0.3022
     13 NE1        -5.4990   -0.6286   -1.3433 N.ar    4  TRP44      -0.3604
     14 CA          4.6677    1.0356    0.9767 C.3     1  PRO11       0.1023
     15 CB          5.3023    1.6384    2.2324 C.3     1  PRO11      -0.0243
     16 CG          4.1201    2.2440    2.9803 C.3     1  PRO11      -0.0350
     17 CD          3.2385    2.7620    1.8566 C.3     1  PRO11       0.0156
     18 C           4.3191   -0.4603    1.1520 C.2     1  PRO11       0.2342
     19 C           2.8677    1.8979   -0.4766 C.2     5  ASP55       0.2369
     20 CA          3.6218   -2.4883   -0.0965 C.3     2  VAL22       0.1017
     21 CA          1.6613    2.8502   -0.6703 C.3     5  ASP55       0.1047
     22 CB          4.5416   -3.4625   -0.8661 C.3     2  VAL22      -0.0197
     23 CA         -0.1870   -2.5269   -0.2525 C.3     3  LEU33       0.0996
     24 C           2.2096   -2.3742   -0.7035 C.2     2  VAL22       0.2342
     25 CB          1.7136    3.5168   -2.0343 C.3     5  ASP55       0.0138
     26 CA         -1.5515    0.9998    0.4062 C.3     4  TRP44       0.1034
     27 CB         -1.1326   -3.6676    0.1389 C.3     3  LEU33      -0.0236
     28 CG         -2.6059   -3.4424   -0.2597 C.3     3  LEU33      -0.0446
     29 C          -0.4252    2.0497    0.4536 C.2     4  TRP44       0.2343
     30 CB         -2.7483    1.6139   -0.3380 C.3     4  TRP44       0.0013
     31 C          -0.5255   -1.2468    0.5299 C.2     3  LEU33       0.2340
     32 CG1         4.8055   -3.0718   -2.3227 C.3     2  VAL22      -0.0605
     33 CG2         4.0057   -4.8966   -0.8005 C.3     2  VAL22      -0.0605
     34 CG         -3.9245    0.6859   -0.4648 C.ar    4  TRP44      -0.0201
     35 CG          2.9240    4.4393   -2.1292 C.2     5  ASP55       0.0440
     36 CD1        -2.7883   -3.2781   -1.7695 C.3     3  LEU33      -0.0626
     37 CD2        -3.4616   -4.6104    0.2353 C.3     3  LEU33      -0.0626
     38 CD2        -4.7261    0.1507    0.5965 C.ar    4  TRP44       0.0029
     39 CD1        -4.4409    0.1851   -1.6450 C.ar    4  TRP44       0.0060
     40 CE2        -5.6887   -0.6777    0.0175 C.ar    4  TRP44       0.0467
     41 CE3        -4.7169    0.2852    2.0003 C.ar    4  TRP44      -0.0523
     42 CZ2        -6.6334   -1.3860    0.7707 C.ar    4  TRP44      -0.0378
     43 CZ3        -5.6526   -0.4168    2.7687 C.ar    4  TRP44      -0.0611
     44 CH2        -6.5950   -1.2415    2.1602 C.ar    4  TRP44      -0.0598
@<TRIPOS>BOND
     1     1    18    2
     2     2    19    2
     3     3    24    2
     4     4    29    2
     5     5    31    2
     6     6    35   ar
     7     7    35   ar
     8     8    14    1
     9     8    17    1
    10     8    19   am
    11     9    18   am
    12     9    20    1
    13    10    21    1
    14    10    29   am
    15    11    23    1
    16    11    24   am
    17    12    26    1
    18    12    31   am
    19    13    39   ar
    20    13    40   ar
    21    14    15    1
    22    14    18    1
    23    15    16    1
    24    16    17    1
    25    19    21    1
    26    20    22    1
    27    20    24    1
    28    21    25    1
    29    22    32    1
    30    22    33    1
    31    23    27    1
    32    23    31    1
    33    25    35    1
    34    26    29    1
    35    26    30    1
    36    27    28    1
    37    28    36    1
    38    28    37    1
    39    30    34    1
    40    34    38   ar
    41    34    39   ar
    42    38    40   ar
    43    38    41   ar
    44    40    42   ar
    45    41    43   ar
    46    42    44   ar
    47    43    44   ar
@<TRIPOS>MOLECULE
104865
 39 42 0 0 0
SMALL
GASTEIGER

@<TRIPOS>ATOM
      1 S          -4.7531    3.0732   -2.8659 S.O2    1  LIG11       0.0736
      2 O          -5.2577    4.0396   -3.8189 O.2     1  LIG11      -0.1499
      3 O          -5.3842    2.9014   -1.5751 O.2     1  LIG11      -0.1499
      4 O          -5.4468   -0.0137   -1.4290 O.3     1  LIG11      -0.4435
      5 O          -3.5908   -2.0814   -0.7392 O.3     1  LIG11      -0.4715
      6 O          -7.6675   -1.5648   -0.3593 O.3     1  LIG11      -0.4914
      7 O          -2.3979   -5.4551   -1.5949 O.3     1  LIG11      -0.3917
      8 N          -4.7143    1.5903   -3.6683 N.pl3   1  LIG11      -0.1963
      9 N          -2.7453    0.4878   -3.8021 N.ar    1  LIG11      -0.2044
     10 N          -2.1036   -1.2705   -2.3441 N.ar    1  LIG11      -0.1866
     11 N           0.5059   -1.0452   -3.3483 N.ar    1  LIG11      -0.2331
     12 N          -0.4062    0.0333   -5.2756 N.ar    1  LIG11      -0.2331
     13 C           1.2180    4.1398   -1.9737 C.3     1  LIG11      -0.0127
     14 C          -0.2924    3.9130   -2.1644 C.ar    1  LIG11      -0.0419
     15 C           1.5397    5.6324   -2.1911 C.3     1  LIG11      -0.0560
     16 C           2.0109    3.2905   -2.9919 C.3     1  LIG11      -0.0560
     17 C           1.7337    3.7532   -0.5686 C.3     1  LIG11      -0.0560
     18 C          -0.8861    4.1213   -3.4275 C.ar    1  LIG11      -0.0562
     19 C          -1.1304    3.5077   -1.1112 C.ar    1  LIG11      -0.0562
     20 C          -3.0393    3.4496   -2.5865 C.ar    1  LIG11       0.1086
     21 C          -2.2479    3.8941   -3.6430 C.ar    1  LIG11      -0.0348
     22 C          -2.4942    3.2856   -1.3149 C.ar    1  LIG11      -0.0348
     23 C          -3.8895    0.5806   -3.1117 C.ar    1  LIG11       0.1883
     24 C          -4.2207   -0.1802   -2.0086 C.ar    1  LIG11       0.2307
     25 C          -3.2872   -1.1545   -1.7123 C.ar    1  LIG11       0.2642
     26 C          -1.8533   -0.4206   -3.3611 C.ar    1  LIG11       0.2027
     27 C          -5.5976   -0.2199   -0.0762 C.ar    1  LIG11       0.1702
     28 C          -0.5225   -0.4842   -4.0284 C.ar    1  LIG11       0.1978
     29 C          -2.7495   -3.2348   -0.6866 C.3     1  LIG11       0.1143
     30 C          -6.6869   -0.9693    0.3905 C.ar    1  LIG11       0.1621
     31 C          -4.6991    0.3441    0.8440 C.ar    1  LIG11      -0.0157
     32 C          -6.8057   -1.2149    1.7648 C.ar    1  LIG11      -0.0163
     33 C          -3.1398   -4.2519   -1.7562 C.3     1  LIG11       0.0783
     34 C          -4.8381    0.1038    2.2115 C.ar    1  LIG11      -0.0581
     35 C          -5.8872   -0.6848    2.6717 C.ar    1  LIG11      -0.0581
     36 C           1.6996   -1.0741   -3.9668 C.ar    1  LIG11       0.0315
     37 C           0.8107   -0.0337   -5.8463 C.ar    1  LIG11       0.0315
     38 C           1.9110   -0.5792   -5.2304 C.ar    1  LIG11      -0.0254
     39 C          -8.0111   -0.9300   -1.5851 C.3     1  LIG11       0.0790
@<TRIPOS>BOND
     1     1     2    2
     2     1     3    2
     3     1     8    1
     4     1    20    1
     5     4    24    1
     6     4    27    1
     7     5    25    1
     8     5    29    1
     9     6    30    1
    10     6    39    1
    11     7    33    1
    12     8    23    1
    13     9    23   ar
    14     9    26   ar
    15    10    25   ar
    16    10    26   ar
    17    11    28   ar
    18    11    36   ar
    19    12    28   ar
    20    12    37   ar
    21    13    14    1
    22    13    15    1
    23    13    16    1
    24    13    17    1
    25    14    18   ar
    26    14    19   ar
    27    18    21   ar
    28    19    22   ar
    29    20    21   ar
    30    20    22   ar
    31    23    24   ar
    32    24    25   ar
    33    26    28    1
    34    27    30   ar
    35    27    31   ar
    36    29    33    1
    37    30    32   ar
    38    31    34   ar
    39    32    35   ar
    40    34    35   ar
    41    36    38   ar
    42    37    38   ar
