@<TRIPOS>MOLECULE
16219006
 44 47 0 0 0
SMALL
GASTEIGER

@<TRIPOS>ATOM
      1 O           4.1595   -1.0570    2.2536 O.2     1  PRO11      -0.2738
      2 O           3.0771    0.9638   -1.3327 O.2     5  ASP55      -0.2735
      3 O           2.1429   -2.3169   -1.9198 O.2     2  VAL22      -0.2738
      4 O          -0.5282    2.9852    1.2259 O.2     4  TRP44      -0.2738
      5 O          -0.2891   -1.1205    1.7371 O.2     3  LEU33      -0.2738
      6 OD1         2.9204    5.0081   -3.2737 O.co2   5  ASP55      -0.5497
      7 OD2         3.5746    4.5180   -1.1454 O.co2   5  ASP55      -0.5497
      8 N           3.3879    1.7587    0.7665 N.am    1  PRO11      -0.2884
      9 N           4.1635   -1.2019   -0.0309 N.am    2  VAL22      -0.3022
     10 N           0.4065    1.9470   -0.5975 N.am    5  ASP55      -0.3021
     11 N           1.2829   -2.7598    0.1537 N.am    3  LEU33      -0.3025
     12 N          -1.1502   -0.2666   -0.2073 N.am    4  TRP44      -0.3022
     13 NE1        -5.4977   -1.0048   -0.0480 N.ar    4  TRP44      -0.3604
     14 CA          4.6127    0.9882    0.9728 C.3     1  PRO11       0.1023
     15 CB          5.2494    1.6111    2.2188 C.3     1  PRO11      -0.0243
     16 CG          4.0659    2.2126    2.9665 C.3     1  PRO11      -0.0350
     17 CD          3.1768    2.7130    1.8403 C.3     1  PRO11       0.0156
     18 C           4.2983   -0.5142    1.1594 C.2     1  PRO11       0.2342
     19 C           2.7943    1.8165   -0.4790 C.2     5  ASP55       0.2369
     20 CA          3.7196   -2.5905   -0.0830 C.3     2  VAL22       0.1017
     21 CA          1.6088    2.7945   -0.6893 C.3     5  ASP55       0.1047
     22 CB          4.6819   -3.4693   -0.9105 C.3     2  VAL22      -0.0197
     23 CA         -0.0846   -2.4774   -0.2564 C.3     3  LEU33       0.0996
     24 C           2.3231   -2.5545   -0.7269 C.2     2  VAL22       0.2342
     25 CB          1.6685    3.4387   -2.0636 C.3     5  ASP55       0.0138
     26 CA         -1.6148    0.9785    0.4183 C.3     4  TRP44       0.1034
     27 CB         -1.0346   -3.6323    0.0800 C.3     3  LEU33      -0.0236
     28 CG         -0.7159   -4.9555   -0.6466 C.3     3  LEU33      -0.0446
     29 C          -0.4976    2.0420    0.4375 C.2     4  TRP44       0.2343
     30 CB         -2.8327    1.5582   -0.3147 C.3     4  TRP44       0.0013
     31 C          -0.5025   -1.2274    0.5306 C.2     3  LEU33       0.2340
     32 CG1         4.1607   -4.9090   -1.0151 C.3     2  VAL22      -0.0605
     33 CG2         6.0820   -3.4911   -0.2886 C.3     2  VAL22      -0.0605
     34 CG         -4.0429    0.6593   -0.3740 C.ar    4  TRP44      -0.0201
     35 CG          2.8387    4.4092   -2.1638 C.2     5  ASP55       0.0440
     36 CD1        -1.6872   -6.0453   -0.1845 C.3     3  LEU33      -0.0626
     37 CD2        -0.7823   -4.8211   -2.1686 C.3     3  LEU33      -0.0626
     38 CD2        -5.2002    0.8799   -1.1927 C.ar    4  TRP44       0.0029
     39 CD1        -4.2821   -0.5058    0.3320 C.ar    4  TRP44       0.0060
     40 CE2        -6.0840   -0.1771   -0.9723 C.ar    4  TRP44       0.0467
     41 CE3        -5.5767    1.8899   -2.1024 C.ar    4  TRP44      -0.0523
     42 CZ2        -7.3203   -0.2808   -1.6211 C.ar    4  TRP44      -0.0378
     43 CZ3        -6.8129    1.8063   -2.7542 C.ar    4  TRP44      -0.0611
     44 CH2        -7.6694    0.7343   -2.5169 C.ar    4  TRP44      -0.0598
@<TRIPOS>BOND
     1     1    18    2
     2     2    19    2
     3     3    24    2
     4     4    29    2
     5     5    31    2
     6     6    35   ar
     7     7    35   ar
     8     8    14    1
     9     8    17    1
    10     8    19   am
    11     9    18   am
    12     9    20    1
    13    10    21    1
    14    10    29   am
    15    11    23    1
    16    11    24   am
    17    12    26    1
    18    12    31   am
    19    13    39   ar
    20    13    40   ar
    21    14    15    1
    22    14    18    1
    23    15    16    1
    24    16    17    1
    25    19    21    1
    26    20    22    1
    27    20    24    1
    28    21    25    1
    29    22    32    1
    30    22    33    1
    31    23    27    1
    32    23    31    1
    33    25    35    1
    34    26    29    1
    35    26    30    1
    36    27    28    1
    37    28    36    1
    38    28    37    1
    39    30    34    1
    40    34    38   ar
    41    34    39   ar
    42    38    40   ar
    43    38    41   ar
    44    40    42   ar
    45    41    43   ar
    46    42    44   ar
    47    43    44   ar
@<TRIPOS>MOLECULE
9910224
 30 33 0 0 0
SMALL
GASTEIGER

@<TRIPOS>ATOM
      1 S          -3.5311   -1.3127   -2.0880 S.O2    1  LIG11       0.0756
      2 O          -2.1557   -1.7500   -1.9825 O.2     1  LIG11      -0.1499
      3 O          -3.9033   -0.4053   -3.1496 O.2     1  LIG11      -0.1499
      4 O          -2.5929   -4.4950   -1.0381 O.3     1  LIG11      -0.4773
      5 O          -8.9763    3.5108   -4.4603 O.2     1  LIG11      -0.4229
      6 N          -4.5070   -2.6771   -2.2500 N.pl3   1  LIG11      -0.1951
      7 N          -5.2865    0.8579    0.8594 N.ar    1  LIG11      -0.2530
      8 N          -5.9437   -3.1499   -0.5460 N.ar    1  LIG11      -0.2325
      9 N          -4.0462   -4.7698    0.8008 N.ar    1  LIG11      -0.2137
     10 N          -9.7491    1.4726   -4.9624 N.ar    1  LIG11      -0.1076
     11 N         -10.4588    2.3935   -5.7070 N.ar    1  LIG11      -0.1156
     12 C          -3.9655   -0.5861   -0.5319 C.ar    1  LIG11       0.1344
     13 C          -5.0357    0.2891   -0.3602 C.ar    1  LIG11       0.0975
     14 C          -5.9965    0.7384   -1.3803 C.ar    1  LIG11       0.0023
     15 C          -3.1259   -0.8531    0.5640 C.ar    1  LIG11      -0.0315
     16 C          -6.9127   -0.1280   -1.9897 C.ar    1  LIG11      -0.0518
     17 C          -6.0743    2.1019   -1.7110 C.ar    1  LIG11      -0.0518
     18 C          -4.7344   -3.4277   -1.0740 C.ar    1  LIG11       0.2006
     19 C          -7.8966    1.6984   -3.2716 C.ar    1  LIG11       0.0385
     20 C          -7.8349    0.3399   -2.9355 C.ar    1  LIG11      -0.0488
     21 C          -7.0097    2.5767   -2.6391 C.ar    1  LIG11      -0.0488
     22 C          -3.3848   -0.2745    1.7993 C.ar    1  LIG11      -0.0417
     23 C          -4.4710    0.5682    1.8970 C.ar    1  LIG11       0.0284
     24 C          -3.7959   -4.2371   -0.4225 C.ar    1  LIG11       0.2574
     25 C          -8.8827    2.1583   -4.2408 C.ar    1  LIG11       0.2480
     26 C          -5.2552   -4.4794    1.3440 C.ar    1  LIG11       0.0602
     27 C          -6.1820   -3.6897    0.6714 C.ar    1  LIG11       0.0510
     28 C          -5.5598   -5.0073    2.7110 C.3     1  LIG11      -0.0208
     29 C          -1.7752   -5.4159   -0.3267 C.3     1  LIG11       0.0805
     30 C          -9.9763    3.5682   -5.3814 C.ar    1  LIG11       0.2047
@<TRIPOS>BOND
     1     1     2    2
     2     1     3    2
     3     1     6    1
     4     1    12    1
     5     4    24    1
     6     4    29    1
     7     5    25   ar
     8     5    30   ar
     9     6    18    1
    10     7    13   ar
    11     7    23   ar
    12     8    18   ar
    13     8    27   ar
    14     9    24   ar
    15     9    26   ar
    16    10    11   ar
    17    10    25   ar
    18    11    30   ar
    19    12    13   ar
    20    12    15   ar
    21    13    14    1
    22    14    16   ar
    23    14    17   ar
    24    15    22   ar
    25    16    20   ar
    26    17    21   ar
    27    18    24   ar
    28    19    20   ar
    29    19    21   ar
    30    19    25    1
    31    22    23   ar
    32    26    27   ar
    33    26    28    1
