@<TRIPOS>MOLECULE
../1EDN/PCA1_17-21_NOBACKBONE.pdb
 26 23 0 0 0
SMALL
GASTEIGER

@<TRIPOS>ATOM
      1  CB        -6.0770   -2.3450   -1.7480 C.3    17  LEU17       0.0000
      2  CG        -7.4170   -3.0590   -2.1890 C.3    17  LEU17       0.0000
      3  CD1       -7.4920   -3.1930   -3.7220 C.3    17  LEU17       0.0000
      4  CD2       -7.5340   -4.4610   -1.6100 C.3    17  LEU17       0.0000
      5  CB        -8.8290    0.4520    1.4200 C.3    18  ASP18       0.1258
      6  CG        -9.9140    1.2760    2.0640 C.2    18  ASP18       0.3654
      7  OD1      -10.8560    1.7240    1.3430 O.co2  18  ASP18      -0.2456
      8  OD2       -9.7710    1.5960    3.2830 O.co2  18  ASP18      -0.2456
      9  CB        -5.0730    3.3500    3.1520 C.3    19  ILE19       0.0000
     10  CG2       -4.5850    4.5470    3.9530 C.3    19  ILE19       0.0000
     11  CG1       -5.6210    2.1420    3.9730 C.3    19  ILE19       0.0000
     12  CD1       -6.7460    2.5740    4.8760 C.3    19  ILE19       0.0000
     13  CB        -2.8480    5.4620   -0.8180 C.3    20  ILE20       0.0000
     14  CG2       -2.5210    6.1670    0.5290 C.3    20  ILE20       0.0000
     15  CG1       -1.9270    4.2500   -0.9510 C.3    20  ILE20       0.0000
     16  CD1       -0.4520    4.4090   -1.0350 C.3    20  ILE20       0.0000
     17  CB        -7.1930    6.0870   -4.6010 C.3    21  TRP21       0.0066
     18  CG        -8.1480    4.9210   -4.3560 C.3    21  TRP21       0.0452
     19  CD1       -8.4270    4.3170   -3.1580 C.3    21  TRP21       0.1165
     20  NE1       -9.4680    3.4340   -3.3480 N.pl3  21  TRP21      -0.2376
     21  CE2      -10.0400    3.5420   -4.5600 C.ar   21  TRP21       0.0614
     22  CZ2      -11.2420    2.9770   -5.0990 C.ar   21  TRP21       0.0158
     23  CH2      -11.3060    3.0240   -6.5170 C.ar   21  TRP21       0.0013
     24  CZ3      -10.3640    3.7270   -7.2650 C.ar   21  TRP21      -0.0002
     25  CE3       -9.2810    4.3830   -6.7050 C.ar   21  TRP21      -0.0030
     26  CD2       -9.0950    4.3440   -5.3390 C.ar   21  TRP21      -0.0059
@<TRIPOS>BOND
     1    24    25   ar
     2    24    23   ar
     3    25    26   ar
     4    23    22   ar
     5    26    21   ar
     6    26    18    1
     7    22    21   ar
     8    17    18    1
     9    21    20    1
    10    18    19    1
    11     3     2    1
    12    20    19    1
    13     2     1    1
    14     2     4    1
    15    16    15    1
    16    15    13    1
    17    13    14    1
    18     7     6   ar
    19     5     6    1
    20     6     8   ar
    21     9    10    1
    22     9    11    1
    23    11    12    1
@<TRIPOS>MOLECULE
16004692
 52 54 0 0 0
SMALL
GASTEIGER

@<TRIPOS>ATOM
      1 BR          1.0482    4.8743   -1.1450 Br      1  LIG11      -0.0503
      2 BR        -11.9387    1.6831   -6.7173 Br      1  LIG11      -0.0472
      3 S          -4.3713    3.5079    3.2461 S.O2    1  LIG11       0.1104
      4 O          -5.5391    5.9241   -1.8970 O.3     1  LIG11      -0.4724
      5 O          -2.9486    3.2608    3.2889 O.2     1  LIG11      -0.1381
      6 O          -4.9121    4.8163    3.5030 O.2     1  LIG11      -0.1381
      7 O          -8.2028    5.7194   -4.4437 O.3     1  LIG11      -0.4590
      8 N          -5.0493    2.4189    4.3218 N.3     1  LIG11      -0.1771
      9 N          -4.9116    2.8763    1.8067 N.pl3   1  LIG11      -0.1889
     10 N          -6.9319    3.8034    1.2988 N.ar    1  LIG11      -0.2186
     11 N          -7.2825    5.3622   -0.4476 N.ar    1  LIG11      -0.2008
     12 N          -9.4087    4.9210   -6.2258 N.ar    1  LIG11      -0.2022
     13 N          -9.4351    3.7402   -4.1521 N.ar    1  LIG11      -0.2022
     14 C          -6.5095    2.2049    4.3265 C.3     1  LIG11       0.0185
     15 C          -5.0356    4.5261   -0.0420 C.ar    1  LIG11       0.0848
     16 C          -5.6262    3.7712    0.9677 C.ar    1  LIG11       0.1532
     17 C          -7.2673    3.3611    4.9659 C.3     1  LIG11      -0.0416
     18 C          -3.5865    4.5794   -0.3321 C.ar    1  LIG11      -0.0094
     19 C          -5.9734    5.2705   -0.7553 C.ar    1  LIG11       0.2276
     20 C          -8.7479    3.0421    5.1058 C.3     1  LIG11      -0.0641
     21 C          -2.9289    5.8250   -0.4059 C.ar    1  LIG11      -0.0527
     22 C          -2.8094    3.4273   -0.5415 C.ar    1  LIG11      -0.0527
     23 C          -6.5786    6.3624   -2.7813 C.3     1  LIG11       0.1252
     24 C          -1.5577    5.9182   -0.6627 C.ar    1  LIG11      -0.0472
     25 C          -1.4287    3.5134   -0.7623 C.ar    1  LIG11      -0.0472
     26 C          -7.6940    4.6307    0.5867 C.ar    1  LIG11       0.1219
     27 C          -7.2846    5.1986   -3.4836 C.3     1  LIG11       0.1267
     28 C          -0.8105    4.7586   -0.8249 C.ar    1  LIG11       0.0179
     29 C          -9.0233    4.7382   -4.9545 C.ar    1  LIG11       0.3180
     30 C         -10.2631    4.0002   -6.7227 C.ar    1  LIG11       0.0483
     31 C         -10.2963    2.8556   -4.6974 C.ar    1  LIG11       0.0483
     32 C         -10.7453    2.9374   -5.9940 C.ar    1  LIG11       0.0543
     33 H          -4.6619    2.5755    5.2515 H       1  LIG11       0.1493
     34 H          -4.1290    2.3979    1.3782 H       1  LIG11       0.1763
     35 H          -6.6868    1.2939    4.9119 H       1  LIG11       0.0442
     36 H          -6.8781    1.9875    3.3204 H       1  LIG11       0.0442
     37 H          -7.1696    4.2683    4.3627 H       1  LIG11       0.0275
     38 H          -6.8481    3.5858    5.9535 H       1  LIG11       0.0275
     39 H          -9.1996    2.8452    4.1281 H       1  LIG11       0.0230
     40 H          -9.2758    3.8869    5.5592 H       1  LIG11       0.0230
     41 H          -8.9033    2.1640    5.7405 H       1  LIG11       0.0230
     42 H          -3.4878    6.7505   -0.2676 H       1  LIG11       0.0624
     43 H          -3.2624    2.4388   -0.5480 H       1  LIG11       0.0624
     44 H          -6.0980    6.9888   -3.5428 H       1  LIG11       0.0731
     45 H          -7.2874    7.0290   -2.2732 H       1  LIG11       0.0731
     46 H          -1.0899    6.8972   -0.7273 H       1  LIG11       0.0629
     47 H          -0.8473    2.6036   -0.8884 H       1  LIG11       0.0629
     48 H          -8.7408    4.7034    0.8596 H       1  LIG11       0.1049
     49 H          -6.5408    4.5685   -3.9878 H       1  LIG11       0.0732
     50 H          -7.7898    4.5800   -2.7360 H       1  LIG11       0.0732
     51 H         -10.5536    4.1593   -7.7570 H       1  LIG11       0.0843
     52 H         -10.6197    2.0620   -4.0301 H       1  LIG11       0.0843
@<TRIPOS>BOND
     1     1    28    1
     2     2    32    1
     3     3     5    2
     4     3     6    2
     5     3     8    1
     6     3     9    1
     7     4    19    1
     8     4    23    1
     9     7    27    1
    10     7    29    1
    11     8    14    1
    12     9    16    1
    13    10    16   ar
    14    10    26   ar
    15    11    19   ar
    16    11    26   ar
    17    12    29   ar
    18    12    30   ar
    19    13    29   ar
    20    13    31   ar
    21    14    17    1
    22    15    16   ar
    23    15    18    1
    24    15    19   ar
    25    17    20    1
    26    18    21   ar
    27    18    22   ar
    28    21    24   ar
    29    22    25   ar
    30    23    27    1
    31    24    28   ar
    32    25    28   ar
    33    30    32   ar
    34    31    32   ar
    35     8    33    1
    36     9    34    1
    37    14    35    1
    38    14    36    1
    39    17    37    1
    40    17    38    1
    41    20    39    1
    42    20    40    1
    43    20    41    1
    44    21    42    1
    45    22    43    1
    46    23    44    1
    47    23    45    1
    48    24    46    1
    49    25    47    1
    50    26    48    1
    51    27    49    1
    52    27    50    1
    53    30    51    1
    54    31    52    1
@<TRIPOS>MOLECULE
../1EDN/PCA1_17-21.pdb
 47 48 0 0 0
SMALL
GASTEIGER

@<TRIPOS>ATOM
      1  N         -4.6470   -0.3680   -1.6750 N.3    17  LEU17      -0.1231
      2  CA        -5.8920   -0.8550   -2.2480 C.3    17  LEU17       0.1693
      3  CB        -6.0770   -2.3450   -1.7480 C.3    17  LEU17       0.0284
      4  CG        -7.4170   -3.0590   -2.1890 C.3    17  LEU17       0.0019
      5  CD1       -7.4920   -3.1930   -3.7220 C.3    17  LEU17       0.0001
      6  CD2       -7.5340   -4.4610   -1.6100 C.3    17  LEU17       0.0001
      7  C         -7.0080    0.1010   -1.8270 C.2    17  LEU17       0.2592
      8  O         -7.6220    0.6590   -2.7680 O.2    17  LEU17      -0.2718
      9  N         -7.2890    0.1920   -0.5460 N.am   18  ASP18      -0.1960
     10  CA        -8.2730    1.1070    0.1120 C.3    18  ASP18       0.1840
     11  CB        -8.8290    0.4520    1.4200 C.3    18  ASP18       0.1450
     12  CG        -9.9140    1.2760    2.0640 C.2    18  ASP18       0.3671
     13  OD1      -10.8560    1.7240    1.3430 O.co2  18  ASP18      -0.2456
     14  OD2       -9.7710    1.5960    3.2830 O.co2  18  ASP18      -0.2456
     15  C         -7.6270    2.4530    0.4740 C.2    18  ASP18       0.2622
     16  O         -8.0770    3.4620   -0.0480 O.2    18  ASP18      -0.2715
     17  N         -6.6010    2.4770    1.3340 N.am   19  ILE19      -0.1963
     18  CA        -6.1660    3.6270    2.0790 C.3    19  ILE19       0.1727
     19  CB        -5.0730    3.3500    3.1520 C.3    19  ILE19       0.0290
     20  CG2       -4.5850    4.5470    3.9530 C.3    19  ILE19       0.0023
     21  CG1       -5.6210    2.1420    3.9730 C.3    19  ILE19       0.0022
     22  CD1       -6.7460    2.5740    4.8760 C.3    19  ILE19       0.0001
     23  C         -5.6740    4.7260    1.1170 C.2    19  ILE19       0.2616
     24  O         -5.9640    5.8590    1.4260 O.2    19  ILE19      -0.2715
     25  N         -4.8940    4.3400    0.1060 N.am   20  ILE20      -0.1963
     26  CA        -4.3700    5.1770   -0.9560 C.3    20  ILE20       0.1727
     27  CB        -2.8480    5.4620   -0.8180 C.3    20  ILE20       0.0290
     28  CG2       -2.5210    6.1670    0.5290 C.3    20  ILE20       0.0023
     29  CG1       -1.9270    4.2500   -0.9510 C.3    20  ILE20       0.0022
     30  CD1       -0.4520    4.4090   -1.0350 C.3    20  ILE20       0.0001
     31  C         -4.8260    4.7960   -2.3980 C.2    20  ILE20       0.2617
     32  O         -4.8210    3.6210   -2.7490 O.2    20  ILE20      -0.2715
     33  N         -5.1950    5.7710   -3.1960 N.am   21  TRP21      -0.1941
     34  CA        -5.6960    5.8160   -4.5740 C.3    21  TRP21       0.1982
     35  CB        -7.1930    6.0870   -4.6010 C.3    21  TRP21       0.0394
     36  CG        -8.1480    4.9210   -4.3560 C.3    21  TRP21       0.0475
     37  CD1       -8.4270    4.3170   -3.1580 C.3    21  TRP21       0.1166
     38  NE1       -9.4680    3.4340   -3.3480 N.pl3  21  TRP21      -0.2376
     39  CE2      -10.0400    3.5420   -4.5600 C.ar   21  TRP21       0.0614
     40  CZ2      -11.2420    2.9770   -5.0990 C.ar   21  TRP21       0.0158
     41  CH2      -11.3060    3.0240   -6.5170 C.ar   21  TRP21       0.0013
     42  CZ3      -10.3640    3.7270   -7.2650 C.ar   21  TRP21      -0.0002
     43  CE3       -9.2810    4.3830   -6.7050 C.ar   21  TRP21      -0.0030
     44  CD2       -9.0950    4.3440   -5.3390 C.ar   21  TRP21      -0.0059
     45  C         -4.8510    6.8160   -5.3910 C.2    21  TRP21       0.3842
     46  O         -5.0400    8.0490   -5.1500 O.co2  21  TRP21      -0.2437
     47  OXT       -3.9720    6.3760   -6.1010 O.co2  21  TRP21      -0.2437
@<TRIPOS>BOND
     1    42    43   ar
     2    42    41   ar
     3    43    44   ar
     4    41    40   ar
     5    47    45   ar
     6    45    46   ar
     7    45    34    1
     8    44    39   ar
     9    44    36    1
    10    40    39   ar
    11    35    34    1
    12    35    36    1
    13    34    33    1
    14    39    38    1
    15    36    37    1
    16     5     4    1
    17    38    37    1
    18    33    31   am
    19     8     7    2
    20    32    31    2
    21    31    26    1
    22     2     7    1
    23     2     3    1
    24     2     1    1
    25     4     3    1
    26     4     6    1
    27     7     9   am
    28    30    29    1
    29    26    27    1
    30    26    25    1
    31    29    27    1
    32    27    28    1
    33     9    10    1
    34    16    15    2
    35    25    23   am
    36    10    15    1
    37    10    11    1
    38    15    17   am
    39    23    24    2
    40    23    18    1
    41    17    18    1
    42    13    12   ar
    43    11    12    1
    44    12    14   ar
    45    18    19    1
    46    19    20    1
    47    19    21    1
    48    21    22    1
