@<TRIPOS>MOLECULE
../1EDN/PCA1_17-21_NOBACKBONE.pdb
 26 23 0 0 0
SMALL
GASTEIGER

@<TRIPOS>ATOM
      1  CB        -6.0770   -2.3450   -1.7480 C.3    17  LEU17       0.0000
      2  CG        -7.4170   -3.0590   -2.1890 C.3    17  LEU17       0.0000
      3  CD1       -7.4920   -3.1930   -3.7220 C.3    17  LEU17       0.0000
      4  CD2       -7.5340   -4.4610   -1.6100 C.3    17  LEU17       0.0000
      5  CB        -8.8290    0.4520    1.4200 C.3    18  ASP18       0.1258
      6  CG        -9.9140    1.2760    2.0640 C.2    18  ASP18       0.3654
      7  OD1      -10.8560    1.7240    1.3430 O.co2  18  ASP18      -0.2456
      8  OD2       -9.7710    1.5960    3.2830 O.co2  18  ASP18      -0.2456
      9  CB        -5.0730    3.3500    3.1520 C.3    19  ILE19       0.0000
     10  CG2       -4.5850    4.5470    3.9530 C.3    19  ILE19       0.0000
     11  CG1       -5.6210    2.1420    3.9730 C.3    19  ILE19       0.0000
     12  CD1       -6.7460    2.5740    4.8760 C.3    19  ILE19       0.0000
     13  CB        -2.8480    5.4620   -0.8180 C.3    20  ILE20       0.0000
     14  CG2       -2.5210    6.1670    0.5290 C.3    20  ILE20       0.0000
     15  CG1       -1.9270    4.2500   -0.9510 C.3    20  ILE20       0.0000
     16  CD1       -0.4520    4.4090   -1.0350 C.3    20  ILE20       0.0000
     17  CB        -7.1930    6.0870   -4.6010 C.3    21  TRP21       0.0066
     18  CG        -8.1480    4.9210   -4.3560 C.3    21  TRP21       0.0452
     19  CD1       -8.4270    4.3170   -3.1580 C.3    21  TRP21       0.1165
     20  NE1       -9.4680    3.4340   -3.3480 N.pl3  21  TRP21      -0.2376
     21  CE2      -10.0400    3.5420   -4.5600 C.ar   21  TRP21       0.0614
     22  CZ2      -11.2420    2.9770   -5.0990 C.ar   21  TRP21       0.0158
     23  CH2      -11.3060    3.0240   -6.5170 C.ar   21  TRP21       0.0013
     24  CZ3      -10.3640    3.7270   -7.2650 C.ar   21  TRP21      -0.0002
     25  CE3       -9.2810    4.3830   -6.7050 C.ar   21  TRP21      -0.0030
     26  CD2       -9.0950    4.3440   -5.3390 C.ar   21  TRP21      -0.0059
@<TRIPOS>BOND
     1    24    25   ar
     2    24    23   ar
     3    25    26   ar
     4    23    22   ar
     5    26    21   ar
     6    26    18    1
     7    22    21   ar
     8    17    18    1
     9    21    20    1
    10    18    19    1
    11     3     2    1
    12    20    19    1
    13     2     1    1
    14     2     4    1
    15    16    15    1
    16    15    13    1
    17    13    14    1
    18     7     6   ar
    19     5     6    1
    20     6     8   ar
    21     9    10    1
    22     9    11    1
    23    11    12    1
@<TRIPOS>MOLECULE
123882
 117 122 0 0 0
SMALL
GASTEIGER

@<TRIPOS>ATOM
      1 S          -4.5732    0.2936    3.8477 S.2     3  UNK33      -0.0993
      2 O          -8.0876    5.1288   -5.1767 O.2     1  UNK11      -0.2755
      3 O          -3.0755    7.7880    2.2754 O.2     4  LEU44      -0.2738
      4 O          -7.8662    1.1763   -2.0776 O.2     1  UNK11      -0.2737
      5 O          -4.6385    4.7019    0.0287 O.2     5  TRP55      -0.2738
      6 O          -4.7249    3.6845   -3.0794 O.2     6  ASP66      -0.2738
      7 O          -4.3100    4.1712    5.0306 O.2     3  UNK33      -0.2734
      8 O          -7.3786    4.2090    1.8511 O.2     2  ASP22      -0.2737
      9 OD1        -3.2877    8.4436   -2.6599 O.co2   6  ASP66      -0.5497
     10 OD2        -5.2811    9.0744   -3.5913 O.co2   6  ASP66      -0.5497
     11 OD1        -8.3895    0.4968    2.6495 O.co2   2  ASP22      -0.5497
     12 OD2       -10.5363    1.2408    2.8379 O.co2   2  ASP22      -0.5497
     13 N         -10.0932    4.1432   -5.6303 N.am    1  UNK11      -0.2984
     14 N         -11.4048    2.8010   -7.8420 N.pl3   1  UNK11      -0.3269
     15 N          -6.7920    4.5821   -2.6339 N.am    1  UNK11      -0.3020
     16 N          -3.0259    5.5253    1.8955 N.am    5  TRP55      -0.3022
     17 N          -5.3463    5.0781    3.2372 N.am    4  LEU44      -0.3022
     18 N          -3.6035    5.9094   -1.6159 N.am    6  ASP66      -0.3021
     19 N          -7.7065    2.9469   -0.6238 N.am    2  ASP22      -0.3021
     20 N          -6.4136    2.2783    2.6138 N.am    3  UNK33      -0.2984
     21 NE1        -0.0453    4.2652   -3.0175 N.ar    5  TRP55      -0.3604
     22 C         -11.0965    3.0944   -5.3927 C.3     1  UNK11       0.0304
     23 C         -10.1681    4.8060   -6.9372 C.3     1  UNK11       0.0304
     24 C         -12.1053    2.9676   -6.5488 C.3     1  UNK11       0.0280
     25 C         -10.2969    3.7764   -8.0735 C.3     1  UNK11       0.0280
     26 C          -8.9813    4.3556   -4.8319 C.2     1  UNK11       0.2179
     27 C          -8.9514    3.6843   -3.4737 C.3     1  UNK11       0.0510
     28 C          -7.5177    3.3775   -3.0323 C.3     1  UNK11       0.1076
     29 CA         -4.7581    6.4134    3.3908 C.3     4  LEU44       0.0997
     30 CB         -5.8329    7.5221    3.3415 C.3     4  LEU44      -0.0236
     31 CA         -2.4329    5.5730    0.5481 C.3     5  TRP55       0.1034
     32 C         -11.1978    1.5294   -8.3940 C.ar    1  UNK11       0.0298
     33 CG         -6.7068    7.6318    2.0681 C.3     4  LEU44      -0.0446
     34 CB         -1.4079    4.4439    0.3966 C.3     5  TRP55       0.0013
     35 C          -3.5628    6.6734    2.4462 C.2     4  LEU44       0.2340
     36 CA         -4.8401    6.0401   -2.3818 C.3     6  ASP66       0.1045
     37 C          -7.6331    2.3678   -1.8713 C.2     1  UNK11       0.2344
     38 CG         -0.6052    4.4742   -0.8683 C.ar    5  TRP55      -0.0201
     39 C          -3.6600    5.3482   -0.3625 C.2     5  TRP55       0.2343
     40 C          -5.4108    4.6444   -2.7303 C.2     6  ASP66       0.2343
     41 CA         -7.8308    2.1622    0.6094 C.3     2  ASP22       0.1045
     42 CD2        -5.9578    8.1919    0.8611 C.3     4  LEU44      -0.0626
     43 CD1        -7.9242    8.5220    2.3489 C.3     4  LEU44      -0.0626
     44 C          -6.0190    2.7518    3.9350 C.3     3  UNK33       0.1311
     45 C         -11.5569    0.3361   -7.7486 C.ar    1  UNK11      -0.0407
     46 C         -10.6192    1.3942   -9.6713 C.ar    1  UNK11      -0.0407
     47 CD2         0.7603    4.8802   -1.0339 C.ar    5  TRP55       0.0029
     48 C          -5.0941    4.0234    4.0893 C.2     3  UNK33       0.2390
     49 CB         -4.6361    6.8137   -3.6763 C.3     6  ASP66       0.0138
     50 CD1        -1.0455    4.0620   -2.1111 C.ar    5  TRP55       0.0060
     51 CE2         1.0841    4.7255   -2.3839 C.ar    5  TRP55       0.0467
     52 C          -7.1997    2.9963    1.7490 C.2     2  ASP22       0.2345
     53 CB         -9.2902    1.8718    0.9414 C.3     2  ASP22       0.0138
     54 C         -11.3259   -0.9192   -8.3286 C.ar    1  UNK11      -0.0600
     55 C         -10.3783    0.1451  -10.2553 C.ar    1  UNK11      -0.0600
     56 C          -5.3483    1.5917    4.6770 C.ar    3  UNK33       0.0189
     57 CE3         1.7593    5.3618   -0.1617 C.ar    5  TRP55      -0.0523
     58 C         -10.7312   -1.0153   -9.5802 C.ar    1  UNK11      -0.0616
     59 CZ2         2.3502    5.0230   -2.9033 C.ar    5  TRP55      -0.0378
     60 CG         -4.3792    8.2534   -3.2729 C.2     6  ASP66       0.0440
     61 CZ3         3.0340    5.6575   -0.6625 C.ar    5  TRP55      -0.0611
     62 C          -5.2498    1.4153    6.0484 C.ar    3  UNK33      -0.0493
     63 CH2         3.3227    5.4885   -2.0145 C.ar    5  TRP55      -0.0598
     64 CG         -9.4177    1.1254    2.2647 C.2     2  ASP22       0.0440
     65 C          -4.5788    0.2115    6.4085 C.ar    3  UNK33      -0.0544
     66 C          -4.1917   -0.5100    5.3040 C.ar    3  UNK33      -0.0240
     67 H          -7.2846    5.4682   -2.6342 H       1  UNK11       0.1495
     68 H          -3.6374    4.7217    2.0254 H       5  TRP55       0.1495
     69 H          -6.0047    4.9215    2.4706 H       4  LEU44       0.1495
     70 H          -2.9849    6.7209   -1.7247 H       6  ASP66       0.1495
     71 H          -7.2947    3.8732   -0.5322 H       2  ASP22       0.1495
     72 H          -6.7713    1.3114    2.6556 H       3  UNK33       0.1498
     73 HE1        -0.1276    4.0938   -4.0090 H       5  TRP55       0.1653
     74 H         -10.5630    2.1447   -5.2718 H       1  UNK11       0.0480
     75 H         -11.6145    3.3220   -4.4548 H       1  UNK11       0.0480
     76 H         -11.0451    5.4641   -6.9139 H       1  UNK11       0.0480
     77 H          -9.2984    5.4451   -7.1188 H       1  UNK11       0.0480
     78 H         -12.6985    3.8895   -6.6089 H       1  UNK11       0.0479
     79 H         -12.8397    2.1816   -6.3499 H       1  UNK11       0.0479
     80 H          -9.3356    3.2497   -8.1422 H       1  UNK11       0.0479
     81 H         -10.4702    4.3043   -9.0180 H       1  UNK11       0.0479
     82 H          -9.4519    4.3514   -2.7610 H       1  UNK11       0.0381
     83 H          -9.5190    2.7510   -3.4947 H       1  UNK11       0.0381
     84 H          -6.9590    2.8850   -3.8377 H       1  UNK11       0.0599
     85 HA         -4.3153    6.4601    4.3938 H       4  LEU44       0.0594
     86 HB1        -6.5057    7.3464    4.1926 H       4  LEU44       0.0290
     87 HB2        -5.3574    8.4942    3.5269 H       4  LEU44       0.0290
     88 HA         -1.9990    6.5620    0.3631 H       5  TRP55       0.0598
     89 HG         -7.0933    6.6466    1.7985 H       4  LEU44       0.0296
     90 HB1        -0.7188    4.4761    1.2513 H       5  TRP55       0.0337
     91 HB2        -1.9113    3.4698    0.4642 H       5  TRP55       0.0337
     92 HA         -5.5604    6.5565   -1.7337 H       6  ASP66       0.0598
     93 HA         -7.2637    1.2341    0.4678 H       2  ASP22       0.0598
     94 HD21       -5.5099    9.1655    1.0840 H       4  LEU44       0.0232
     95 HD22       -5.1674    7.5170    0.5343 H       4  LEU44       0.0232
     96 HD23       -6.6353    8.3209    0.0092 H       4  LEU44       0.0232
     97 HD11       -7.6202    9.5395    2.6151 H       4  LEU44       0.0232
     98 HD12       -8.5733    8.5814    1.4683 H       4  LEU44       0.0232
     99 HD13       -8.5230    8.1170    3.1711 H       4  LEU44       0.0232
    100 H          -6.9508    3.0044    4.4593 H       3  UNK33       0.0651
    101 H         -11.9985    0.3376   -6.7581 H       1  UNK11       0.0636
    102 H         -10.3457    2.2777  -10.2419 H       1  UNK11       0.0636
    103 HB1        -3.7826    6.4317   -4.2485 H       6  ASP66       0.0348
    104 HB2        -5.5214    6.7528   -4.3203 H       6  ASP66       0.0348
    105 HD1        -2.0071    3.6781   -2.4316 H       5  TRP55       0.0810
    106 HB1        -9.8578    2.8089    1.0074 H       2  ASP22       0.0348
    107 HB2        -9.7557    1.2658    0.1553 H       2  ASP22       0.0348
    108 H         -11.6031   -1.8196   -7.7867 H       1  UNK11       0.0618
    109 H          -9.9126    0.0883  -11.2348 H       1  UNK11       0.0618
    110 HE3         1.5425    5.5043    0.8929 H       5  TRP55       0.0624
    111 H         -10.5408   -1.9881  -10.0232 H       1  UNK11       0.0618
    112 HZ2         2.5690    4.9011   -3.9584 H       5  TRP55       0.0638
    113 HZ3         3.8001    6.0285    0.0128 H       5  TRP55       0.0618
    114 H          -5.6377    2.1347    6.7595 H       3  UNK33       0.0626
    115 HH2         4.3146    5.7291   -2.3873 H       5  TRP55       0.0618
    116 H          -4.4005   -0.1115    7.4252 H       3  UNK33       0.0623
    117 H          -3.6887   -1.4658    5.2755 H       3  UNK33       0.0693
@<TRIPOS>BOND
     1     1    56   ar
     2     1    66   ar
     3     2    26    2
     4     3    35    2
     5     4    37    2
     6     5    39    2
     7     6    40    2
     8     7    48    2
     9     8    52    2
    10     9    60   ar
    11    10    60   ar
    12    11    64   ar
    13    12    64   ar
    14    13    22    1
    15    13    23    1
    16    14    24    1
    17    14    25    1
    18    14    32    1
    19    15    28    1
    20    15    40   am
    21    16    35   am
    22    16    31    1
    23    17    48   am
    24    17    29    1
    25    18    39   am
    26    18    36    1
    27    19    37   am
    28    19    41    1
    29    20    52   am
    30    20    44    1
    31    21    50   ar
    32    21    51   ar
    33    22    24    1
    34    23    25    1
    35    26    27    1
    36    26    13   am
    37    28    37    1
    38    28    27    1
    39    29    35    1
    40    29    30    1
    41    30    33    1
    42    31    39    1
    43    31    34    1
    44    32    45   ar
    45    32    46   ar
    46    33    43    1
    47    33    42    1
    48    34    38    1
    49    36    40    1
    50    36    49    1
    51    38    47   ar
    52    38    50   ar
    53    41    52    1
    54    41    53    1
    55    44    48    1
    56    44    56    1
    57    45    54   ar
    58    46    55   ar
    59    47    57   ar
    60    47    51   ar
    61    49    60    1
    62    51    59   ar
    63    53    64    1
    64    54    58   ar
    65    55    58   ar
    66    56    62   ar
    67    57    61   ar
    68    59    63   ar
    69    61    63   ar
    70    62    65   ar
    71    65    66   ar
    72    15    67    1
    73    16    68    1
    74    17    69    1
    75    18    70    1
    76    19    71    1
    77    20    72    1
    78    21    73    1
    79    22    74    1
    80    22    75    1
    81    23    76    1
    82    23    77    1
    83    24    78    1
    84    24    79    1
    85    25    80    1
    86    25    81    1
    87    27    82    1
    88    27    83    1
    89    28    84    1
    90    29    85    1
    91    30    86    1
    92    30    87    1
    93    31    88    1
    94    33    89    1
    95    34    90    1
    96    34    91    1
    97    36    92    1
    98    41    93    1
    99    42    94    1
   100    42    95    1
   101    42    96    1
   102    43    97    1
   103    43    98    1
   104    43    99    1
   105    44   100    1
   106    45   101    1
   107    46   102    1
   108    49   103    1
   109    49   104    1
   110    50   105    1
   111    53   106    1
   112    53   107    1
   113    54   108    1
   114    55   109    1
   115    57   110    1
   116    58   111    1
   117    59   112    1
   118    61   113    1
   119    62   114    1
   120    63   115    1
   121    65   116    1
   122    66   117    1
@<TRIPOS>MOLECULE
../1EDN/PCA1_17-21.pdb
 47 48 0 0 0
SMALL
GASTEIGER

@<TRIPOS>ATOM
      1  N         -4.6470   -0.3680   -1.6750 N.3    17  LEU17      -0.1231
      2  CA        -5.8920   -0.8550   -2.2480 C.3    17  LEU17       0.1693
      3  CB        -6.0770   -2.3450   -1.7480 C.3    17  LEU17       0.0284
      4  CG        -7.4170   -3.0590   -2.1890 C.3    17  LEU17       0.0019
      5  CD1       -7.4920   -3.1930   -3.7220 C.3    17  LEU17       0.0001
      6  CD2       -7.5340   -4.4610   -1.6100 C.3    17  LEU17       0.0001
      7  C         -7.0080    0.1010   -1.8270 C.2    17  LEU17       0.2592
      8  O         -7.6220    0.6590   -2.7680 O.2    17  LEU17      -0.2718
      9  N         -7.2890    0.1920   -0.5460 N.am   18  ASP18      -0.1960
     10  CA        -8.2730    1.1070    0.1120 C.3    18  ASP18       0.1840
     11  CB        -8.8290    0.4520    1.4200 C.3    18  ASP18       0.1450
     12  CG        -9.9140    1.2760    2.0640 C.2    18  ASP18       0.3671
     13  OD1      -10.8560    1.7240    1.3430 O.co2  18  ASP18      -0.2456
     14  OD2       -9.7710    1.5960    3.2830 O.co2  18  ASP18      -0.2456
     15  C         -7.6270    2.4530    0.4740 C.2    18  ASP18       0.2622
     16  O         -8.0770    3.4620   -0.0480 O.2    18  ASP18      -0.2715
     17  N         -6.6010    2.4770    1.3340 N.am   19  ILE19      -0.1963
     18  CA        -6.1660    3.6270    2.0790 C.3    19  ILE19       0.1727
     19  CB        -5.0730    3.3500    3.1520 C.3    19  ILE19       0.0290
     20  CG2       -4.5850    4.5470    3.9530 C.3    19  ILE19       0.0023
     21  CG1       -5.6210    2.1420    3.9730 C.3    19  ILE19       0.0022
     22  CD1       -6.7460    2.5740    4.8760 C.3    19  ILE19       0.0001
     23  C         -5.6740    4.7260    1.1170 C.2    19  ILE19       0.2616
     24  O         -5.9640    5.8590    1.4260 O.2    19  ILE19      -0.2715
     25  N         -4.8940    4.3400    0.1060 N.am   20  ILE20      -0.1963
     26  CA        -4.3700    5.1770   -0.9560 C.3    20  ILE20       0.1727
     27  CB        -2.8480    5.4620   -0.8180 C.3    20  ILE20       0.0290
     28  CG2       -2.5210    6.1670    0.5290 C.3    20  ILE20       0.0023
     29  CG1       -1.9270    4.2500   -0.9510 C.3    20  ILE20       0.0022
     30  CD1       -0.4520    4.4090   -1.0350 C.3    20  ILE20       0.0001
     31  C         -4.8260    4.7960   -2.3980 C.2    20  ILE20       0.2617
     32  O         -4.8210    3.6210   -2.7490 O.2    20  ILE20      -0.2715
     33  N         -5.1950    5.7710   -3.1960 N.am   21  TRP21      -0.1941
     34  CA        -5.6960    5.8160   -4.5740 C.3    21  TRP21       0.1982
     35  CB        -7.1930    6.0870   -4.6010 C.3    21  TRP21       0.0394
     36  CG        -8.1480    4.9210   -4.3560 C.3    21  TRP21       0.0475
     37  CD1       -8.4270    4.3170   -3.1580 C.3    21  TRP21       0.1166
     38  NE1       -9.4680    3.4340   -3.3480 N.pl3  21  TRP21      -0.2376
     39  CE2      -10.0400    3.5420   -4.5600 C.ar   21  TRP21       0.0614
     40  CZ2      -11.2420    2.9770   -5.0990 C.ar   21  TRP21       0.0158
     41  CH2      -11.3060    3.0240   -6.5170 C.ar   21  TRP21       0.0013
     42  CZ3      -10.3640    3.7270   -7.2650 C.ar   21  TRP21      -0.0002
     43  CE3       -9.2810    4.3830   -6.7050 C.ar   21  TRP21      -0.0030
     44  CD2       -9.0950    4.3440   -5.3390 C.ar   21  TRP21      -0.0059
     45  C         -4.8510    6.8160   -5.3910 C.2    21  TRP21       0.3842
     46  O         -5.0400    8.0490   -5.1500 O.co2  21  TRP21      -0.2437
     47  OXT       -3.9720    6.3760   -6.1010 O.co2  21  TRP21      -0.2437
@<TRIPOS>BOND
     1    42    43   ar
     2    42    41   ar
     3    43    44   ar
     4    41    40   ar
     5    47    45   ar
     6    45    46   ar
     7    45    34    1
     8    44    39   ar
     9    44    36    1
    10    40    39   ar
    11    35    34    1
    12    35    36    1
    13    34    33    1
    14    39    38    1
    15    36    37    1
    16     5     4    1
    17    38    37    1
    18    33    31   am
    19     8     7    2
    20    32    31    2
    21    31    26    1
    22     2     7    1
    23     2     3    1
    24     2     1    1
    25     4     3    1
    26     4     6    1
    27     7     9   am
    28    30    29    1
    29    26    27    1
    30    26    25    1
    31    29    27    1
    32    27    28    1
    33     9    10    1
    34    16    15    2
    35    25    23   am
    36    10    15    1
    37    10    11    1
    38    15    17   am
    39    23    24    2
    40    23    18    1
    41    17    18    1
    42    13    12   ar
    43    11    12    1
    44    12    14   ar
    45    18    19    1
    46    19    20    1
    47    19    21    1
    48    21    22    1
