@<TRIPOS>MOLECULE
../1EDN/PCA1_17-21_NOBACKBONE.pdb
 26 23 0 0 0
SMALL
GASTEIGER

@<TRIPOS>ATOM
      1  CB        -6.0770   -2.3450   -1.7480 C.3    17  LEU17       0.0000
      2  CG        -7.4170   -3.0590   -2.1890 C.3    17  LEU17       0.0000
      3  CD1       -7.4920   -3.1930   -3.7220 C.3    17  LEU17       0.0000
      4  CD2       -7.5340   -4.4610   -1.6100 C.3    17  LEU17       0.0000
      5  CB        -8.8290    0.4520    1.4200 C.3    18  ASP18       0.1258
      6  CG        -9.9140    1.2760    2.0640 C.2    18  ASP18       0.3654
      7  OD1      -10.8560    1.7240    1.3430 O.co2  18  ASP18      -0.2456
      8  OD2       -9.7710    1.5960    3.2830 O.co2  18  ASP18      -0.2456
      9  CB        -5.0730    3.3500    3.1520 C.3    19  ILE19       0.0000
     10  CG2       -4.5850    4.5470    3.9530 C.3    19  ILE19       0.0000
     11  CG1       -5.6210    2.1420    3.9730 C.3    19  ILE19       0.0000
     12  CD1       -6.7460    2.5740    4.8760 C.3    19  ILE19       0.0000
     13  CB        -2.8480    5.4620   -0.8180 C.3    20  ILE20       0.0000
     14  CG2       -2.5210    6.1670    0.5290 C.3    20  ILE20       0.0000
     15  CG1       -1.9270    4.2500   -0.9510 C.3    20  ILE20       0.0000
     16  CD1       -0.4520    4.4090   -1.0350 C.3    20  ILE20       0.0000
     17  CB        -7.1930    6.0870   -4.6010 C.3    21  TRP21       0.0066
     18  CG        -8.1480    4.9210   -4.3560 C.3    21  TRP21       0.0452
     19  CD1       -8.4270    4.3170   -3.1580 C.3    21  TRP21       0.1165
     20  NE1       -9.4680    3.4340   -3.3480 N.pl3  21  TRP21      -0.2376
     21  CE2      -10.0400    3.5420   -4.5600 C.ar   21  TRP21       0.0614
     22  CZ2      -11.2420    2.9770   -5.0990 C.ar   21  TRP21       0.0158
     23  CH2      -11.3060    3.0240   -6.5170 C.ar   21  TRP21       0.0013
     24  CZ3      -10.3640    3.7270   -7.2650 C.ar   21  TRP21      -0.0002
     25  CE3       -9.2810    4.3830   -6.7050 C.ar   21  TRP21      -0.0030
     26  CD2       -9.0950    4.3440   -5.3390 C.ar   21  TRP21      -0.0059
@<TRIPOS>BOND
     1    24    25   ar
     2    24    23   ar
     3    25    26   ar
     4    23    22   ar
     5    26    21   ar
     6    26    18    1
     7    22    21   ar
     8    17    18    1
     9    21    20    1
    10    18    19    1
    11     3     2    1
    12    20    19    1
    13     2     1    1
    14     2     4    1
    15    16    15    1
    16    15    13    1
    17    13    14    1
    18     7     6   ar
    19     5     6    1
    20     6     8   ar
    21     9    10    1
    22     9    11    1
    23    11    12    1
@<TRIPOS>MOLECULE
159594
 75 78 0 0 0
SMALL
GASTEIGER

@<TRIPOS>ATOM
      1 O         -10.2978   -0.9285    2.6249 O.co2   1  LIG11      -0.5493
      2 O         -11.3968    0.7869    1.5898 O.co2   1  LIG11      -0.5493
      3 O          -4.6767    4.6303    2.4871 O.3     1  LIG11      -0.4526
      4 O          -7.6483    4.2509   -1.5556 O.2     1  LIG11      -0.2697
      5 O          -4.3107    3.6488    4.6596 O.3     1  LIG11      -0.4526
      6 O          -6.3993   -3.5937   -2.6144 O.3     1  LIG11      -0.4951
      7 N          -8.7511    2.0208   -0.4636 N.4     1  LIG11       0.2481
      8 N          -8.5741    4.1031   -3.6593 N.am    1  LIG11      -0.2971
      9 C          -9.0592    0.7025    1.4977 C.3     1  LIG11       0.0574
     10 C          -9.0269    2.1879    1.9002 C.3     1  LIG11       0.0378
     11 C          -9.2057    0.6394   -0.0182 C.3     1  LIG11       0.0143
     12 C          -9.3611    2.9139    0.5956 C.3     1  LIG11      -0.0230
     13 C          -7.7113    2.5492    2.5844 C.ar    1  LIG11      -0.0347
     14 C          -8.4483   -0.4849   -0.6968 C.ar    1  LIG11       0.0011
     15 C          -9.1100    2.3855   -1.8863 C.3     1  LIG11       0.0468
     16 C         -10.3834    0.1277    1.9577 C.2     1  LIG11       0.0513
     17 C          -6.7700    3.4533    2.0661 C.ar    1  LIG11      -0.0125
     18 C          -8.3877    3.6608   -2.3509 C.2     1  LIG11       0.2608
     19 C          -7.4704    1.9757    3.8628 C.ar    1  LIG11      -0.0544
     20 C          -9.1773   -1.4625   -1.3974 C.ar    1  LIG11      -0.0498
     21 C          -7.0537   -0.5997   -0.6542 C.ar    1  LIG11      -0.0498
     22 C          -5.6607    3.7562    2.8344 C.ar    1  LIG11       0.1665
     23 C          -6.3340    2.2956    4.6121 C.ar    1  LIG11      -0.0159
     24 C          -5.4498    3.1978    4.0715 C.ar    1  LIG11       0.1662
     25 C          -8.5338   -2.5153   -2.0551 C.ar    1  LIG11      -0.0195
     26 C          -6.4137   -1.6548   -1.3155 C.ar    1  LIG11      -0.0195
     27 C          -7.8253    5.3003   -4.0739 C.3     1  LIG11       0.0148
     28 C          -9.3421    3.3679   -4.6813 C.3     1  LIG11       0.0148
     29 C          -7.1465   -2.6164   -2.0169 C.ar    1  LIG11       0.1201
     30 C          -6.3131    5.0938   -4.2324 C.3     1  LIG11      -0.0374
     31 C         -10.4176    4.2127   -5.3752 C.3     1  LIG11      -0.0374
     32 C          -3.8475    4.5872    3.6682 C.3     1  LIG11       0.2332
     33 C          -5.8911    4.0729   -5.2887 C.3     1  LIG11      -0.0545
     34 C         -11.2960    3.3966   -6.3275 C.3     1  LIG11      -0.0545
     35 C          -6.2849    4.4646   -6.7040 C.3     1  LIG11      -0.0652
     36 C         -12.3076    2.5200   -5.6061 C.3     1  LIG11      -0.0652
     37 C          -7.1136   -4.6832   -3.1887 C.3     1  LIG11       0.0788
     38 H          -7.7308    2.0913   -0.3703 H       1  LIG11       0.2045
     39 H          -8.2179    0.1167    1.8844 H       1  LIG11       0.0427
     40 H          -9.8041    2.4534    2.6305 H       1  LIG11       0.0409
     41 H         -10.2438    0.5845   -0.3715 H       1  LIG11       0.0911
     42 H         -10.4410    2.9449    0.4091 H       1  LIG11       0.0821
     43 H          -8.9613    3.9251    0.5089 H       1  LIG11       0.0821
     44 H         -10.1951    2.5124   -1.9384 H       1  LIG11       0.0913
     45 H          -8.7777    1.5554   -2.5157 H       1  LIG11       0.0913
     46 H          -6.8763    3.9488    1.1083 H       1  LIG11       0.0658
     47 H          -8.1927    1.2749    4.2874 H       1  LIG11       0.0622
     48 H         -10.2670   -1.4302   -1.4183 H       1  LIG11       0.0623
     49 H          -6.4463    0.1030   -0.0886 H       1  LIG11       0.0623
     50 H          -6.1665    1.8587    5.5902 H       1  LIG11       0.0655
     51 H          -9.1494   -3.2437   -2.5732 H       1  LIG11       0.0654
     52 H          -5.3304   -1.7441   -1.2655 H       1  LIG11       0.0654
     53 H          -7.9831    6.0619   -3.2992 H       1  LIG11       0.0464
     54 H          -8.2470    5.7162   -4.9910 H       1  LIG11       0.0464
     55 H          -9.8124    2.4944   -4.2288 H       1  LIG11       0.0464
     56 H          -8.6301    2.9852   -5.4191 H       1  LIG11       0.0464
     57 H          -5.8773    4.7903   -3.2740 H       1  LIG11       0.0280
     58 H          -5.8604    6.0636   -4.4762 H       1  LIG11       0.0280
     59 H          -9.9404    4.9982   -5.9710 H       1  LIG11       0.0280
     60 H         -11.0397    4.7207   -4.6289 H       1  LIG11       0.0280
     61 H          -3.8237    5.5880    4.1160 H       1  LIG11       0.1166
     62 H          -2.8293    4.3108    3.3720 H       1  LIG11       0.1166
     63 H          -6.2978    3.0853   -5.0472 H       1  LIG11       0.0263
     64 H          -4.7994    3.9736   -5.2510 H       1  LIG11       0.0263
     65 H         -10.6708    2.7789   -6.9828 H       1  LIG11       0.0263
     66 H         -11.8447    4.0904   -6.9760 H       1  LIG11       0.0263
     67 H          -7.3702    4.5047   -6.8277 H       1  LIG11       0.0230
     68 H          -5.8963    3.7302   -7.4167 H       1  LIG11       0.0230
     69 H          -5.8728    5.4435   -6.9685 H       1  LIG11       0.0230
     70 H         -11.8190    1.7530   -4.9993 H       1  LIG11       0.0230
     71 H         -12.9495    2.0121   -6.3332 H       1  LIG11       0.0230
     72 H         -12.9488    3.1209   -4.9532 H       1  LIG11       0.0230
     73 H          -6.3814   -5.4122   -3.5490 H       1  LIG11       0.0660
     74 H          -7.7052   -4.3534   -4.0493 H       1  LIG11       0.0660
     75 H          -7.7433   -5.1841   -2.4454 H       1  LIG11       0.0660
@<TRIPOS>BOND
     1     1    16   ar
     2     2    16   ar
     3     3    22    1
     4     3    32    1
     5     4    18    2
     6     5    24    1
     7     5    32    1
     8     6    29    1
     9     6    37    1
    10     7    11    1
    11     7    12    1
    12     7    15    1
    13     8    18   am
    14     8    27    1
    15     8    28    1
    16     9    10    1
    17     9    11    1
    18     9    16    1
    19    10    12    1
    20    10    13    1
    21    11    14    1
    22    13    17   ar
    23    13    19   ar
    24    14    20   ar
    25    14    21   ar
    26    15    18    1
    27    17    22   ar
    28    19    23   ar
    29    20    25   ar
    30    21    26   ar
    31    22    24   ar
    32    23    24   ar
    33    25    29   ar
    34    26    29   ar
    35    27    30    1
    36    28    31    1
    37    30    33    1
    38    31    34    1
    39    33    35    1
    40    34    36    1
    41     7    38    1
    42     9    39    1
    43    10    40    1
    44    11    41    1
    45    12    42    1
    46    12    43    1
    47    15    44    1
    48    15    45    1
    49    17    46    1
    50    19    47    1
    51    20    48    1
    52    21    49    1
    53    23    50    1
    54    25    51    1
    55    26    52    1
    56    27    53    1
    57    27    54    1
    58    28    55    1
    59    28    56    1
    60    30    57    1
    61    30    58    1
    62    31    59    1
    63    31    60    1
    64    32    61    1
    65    32    62    1
    66    33    63    1
    67    33    64    1
    68    34    65    1
    69    34    66    1
    70    35    67    1
    71    35    68    1
    72    35    69    1
    73    36    70    1
    74    36    71    1
    75    36    72    1
    76    37    73    1
    77    37    74    1
    78    37    75    1
@<TRIPOS>MOLECULE
../1EDN/PCA1_17-21.pdb
 47 48 0 0 0
SMALL
GASTEIGER

@<TRIPOS>ATOM
      1  N         -4.6470   -0.3680   -1.6750 N.3    17  LEU17      -0.1231
      2  CA        -5.8920   -0.8550   -2.2480 C.3    17  LEU17       0.1693
      3  CB        -6.0770   -2.3450   -1.7480 C.3    17  LEU17       0.0284
      4  CG        -7.4170   -3.0590   -2.1890 C.3    17  LEU17       0.0019
      5  CD1       -7.4920   -3.1930   -3.7220 C.3    17  LEU17       0.0001
      6  CD2       -7.5340   -4.4610   -1.6100 C.3    17  LEU17       0.0001
      7  C         -7.0080    0.1010   -1.8270 C.2    17  LEU17       0.2592
      8  O         -7.6220    0.6590   -2.7680 O.2    17  LEU17      -0.2718
      9  N         -7.2890    0.1920   -0.5460 N.am   18  ASP18      -0.1960
     10  CA        -8.2730    1.1070    0.1120 C.3    18  ASP18       0.1840
     11  CB        -8.8290    0.4520    1.4200 C.3    18  ASP18       0.1450
     12  CG        -9.9140    1.2760    2.0640 C.2    18  ASP18       0.3671
     13  OD1      -10.8560    1.7240    1.3430 O.co2  18  ASP18      -0.2456
     14  OD2       -9.7710    1.5960    3.2830 O.co2  18  ASP18      -0.2456
     15  C         -7.6270    2.4530    0.4740 C.2    18  ASP18       0.2622
     16  O         -8.0770    3.4620   -0.0480 O.2    18  ASP18      -0.2715
     17  N         -6.6010    2.4770    1.3340 N.am   19  ILE19      -0.1963
     18  CA        -6.1660    3.6270    2.0790 C.3    19  ILE19       0.1727
     19  CB        -5.0730    3.3500    3.1520 C.3    19  ILE19       0.0290
     20  CG2       -4.5850    4.5470    3.9530 C.3    19  ILE19       0.0023
     21  CG1       -5.6210    2.1420    3.9730 C.3    19  ILE19       0.0022
     22  CD1       -6.7460    2.5740    4.8760 C.3    19  ILE19       0.0001
     23  C         -5.6740    4.7260    1.1170 C.2    19  ILE19       0.2616
     24  O         -5.9640    5.8590    1.4260 O.2    19  ILE19      -0.2715
     25  N         -4.8940    4.3400    0.1060 N.am   20  ILE20      -0.1963
     26  CA        -4.3700    5.1770   -0.9560 C.3    20  ILE20       0.1727
     27  CB        -2.8480    5.4620   -0.8180 C.3    20  ILE20       0.0290
     28  CG2       -2.5210    6.1670    0.5290 C.3    20  ILE20       0.0023
     29  CG1       -1.9270    4.2500   -0.9510 C.3    20  ILE20       0.0022
     30  CD1       -0.4520    4.4090   -1.0350 C.3    20  ILE20       0.0001
     31  C         -4.8260    4.7960   -2.3980 C.2    20  ILE20       0.2617
     32  O         -4.8210    3.6210   -2.7490 O.2    20  ILE20      -0.2715
     33  N         -5.1950    5.7710   -3.1960 N.am   21  TRP21      -0.1941
     34  CA        -5.6960    5.8160   -4.5740 C.3    21  TRP21       0.1982
     35  CB        -7.1930    6.0870   -4.6010 C.3    21  TRP21       0.0394
     36  CG        -8.1480    4.9210   -4.3560 C.3    21  TRP21       0.0475
     37  CD1       -8.4270    4.3170   -3.1580 C.3    21  TRP21       0.1166
     38  NE1       -9.4680    3.4340   -3.3480 N.pl3  21  TRP21      -0.2376
     39  CE2      -10.0400    3.5420   -4.5600 C.ar   21  TRP21       0.0614
     40  CZ2      -11.2420    2.9770   -5.0990 C.ar   21  TRP21       0.0158
     41  CH2      -11.3060    3.0240   -6.5170 C.ar   21  TRP21       0.0013
     42  CZ3      -10.3640    3.7270   -7.2650 C.ar   21  TRP21      -0.0002
     43  CE3       -9.2810    4.3830   -6.7050 C.ar   21  TRP21      -0.0030
     44  CD2       -9.0950    4.3440   -5.3390 C.ar   21  TRP21      -0.0059
     45  C         -4.8510    6.8160   -5.3910 C.2    21  TRP21       0.3842
     46  O         -5.0400    8.0490   -5.1500 O.co2  21  TRP21      -0.2437
     47  OXT       -3.9720    6.3760   -6.1010 O.co2  21  TRP21      -0.2437
@<TRIPOS>BOND
     1    42    43   ar
     2    42    41   ar
     3    43    44   ar
     4    41    40   ar
     5    47    45   ar
     6    45    46   ar
     7    45    34    1
     8    44    39   ar
     9    44    36    1
    10    40    39   ar
    11    35    34    1
    12    35    36    1
    13    34    33    1
    14    39    38    1
    15    36    37    1
    16     5     4    1
    17    38    37    1
    18    33    31   am
    19     8     7    2
    20    32    31    2
    21    31    26    1
    22     2     7    1
    23     2     3    1
    24     2     1    1
    25     4     3    1
    26     4     6    1
    27     7     9   am
    28    30    29    1
    29    26    27    1
    30    26    25    1
    31    29    27    1
    32    27    28    1
    33     9    10    1
    34    16    15    2
    35    25    23   am
    36    10    15    1
    37    10    11    1
    38    15    17   am
    39    23    24    2
    40    23    18    1
    41    17    18    1
    42    13    12   ar
    43    11    12    1
    44    12    14   ar
    45    18    19    1
    46    19    20    1
    47    19    21    1
    48    21    22    1
