@<TRIPOS>MOLECULE
../1EDN/PCA2_17-21_NOBACKBONE.pdb
 26 23 0 0 0
SMALL
GASTEIGER

@<TRIPOS>ATOM
      1  CB        -5.9860   -1.2020   -0.4580 C.3    17  LEU17       0.0000
      2  CG        -7.1280   -2.2100   -0.5390 C.3    17  LEU17       0.0000
      3  CD1       -6.7120   -3.3620   -1.4700 C.3    17  LEU17       0.0000
      4  CD2       -7.4980   -2.5610    0.9130 C.3    17  LEU17       0.0000
      5  CB        -9.6810    1.0560   -1.6740 C.3    18  ASP18       0.1258
      6  CG       -11.0010    1.6360   -2.1090 C.2    18  ASP18       0.3654
      7  OD1      -11.5960    2.3310   -1.2790 O.co2  18  ASP18      -0.2456
      8  OD2      -11.5460    1.2700   -3.1630 O.co2  18  ASP18      -0.2456
      9  CB        -8.4260    4.8620    1.7600 C.3    19  ILE19       0.0000
     10  CG2       -7.7310    6.0060    2.5190 C.3    19  ILE19       0.0000
     11  CG1       -9.9240    4.5740    2.2500 C.3    19  ILE19       0.0000
     12  CD1      -10.9740    5.6950    2.0110 C.3    19  ILE19       0.0000
     13  CB        -3.5230    4.9310   -0.1080 C.3    20  ILE20       0.0000
     14  CG2       -2.1210    5.5060   -0.7390 C.3    20  ILE20       0.0000
     15  CG1       -3.5940    5.4760    1.3470 C.3    20  ILE20       0.0000
     16  CD1       -2.3570    5.1940    2.2260 C.3    20  ILE20       0.0000
     17  CB        -6.6210    3.8650   -5.0310 C.3    21  TRP21       0.0327
     18  CG        -6.7890    3.3770   -6.4480 C.ar   21  TRP21      -0.0013
     19  CD1       -7.1340    4.1960   -7.4760 C.ar   21  TRP21       0.0946
     20  NE1       -7.1740    3.4060   -8.6160 N.ar   21  TRP21      -0.2442
     21  CE2       -6.9360    2.0750   -8.3350 C.ar   21  TRP21       0.0810
     22  CZ2       -6.8300    1.0510   -9.2060 C.ar   21  TRP21       0.0191
     23  CH2       -6.3330   -0.2010   -8.7710 C.ar   21  TRP21       0.0015
     24  CZ3       -5.9560   -0.2520   -7.3640 C.ar   21  TRP21       0.0001
     25  CE3       -6.0150    0.8940   -6.5860 C.ar   21  TRP21       0.0012
     26  CD2       -6.6320    2.0560   -6.9830 C.ar   21  TRP21       0.0152
@<TRIPOS>BOND
     1    22    23   ar
     2    22    21   ar
     3    23    24   ar
     4    20    21   ar
     5    20    19   ar
     6    21    26   ar
     7    19    18   ar
     8    24    25   ar
     9    26    25   ar
    10    26    18   ar
    11    18    17    1
    12     8     6   ar
    13     6     5    1
    14     6     7   ar
    15     3     2    1
    16    14    13    1
    17     2     1    1
    18     2     4    1
    19    13    15    1
    20    15    16    1
    21     9    11    1
    22     9    10    1
    23    12    11    1
@<TRIPOS>MOLECULE
9957262
 56 59 0 0 0
SMALL
GASTEIGER

@<TRIPOS>ATOM
      1 S          -5.3930    4.0580   -4.0648 S.O2    1  LIG11       0.0668
      2 O          -6.2183    1.3214   -6.2046 O.3     1  LIG11      -0.4435
      3 O          -8.8200    0.1461   -6.4601 O.3     1  LIG11      -0.4771
      4 O          -6.6708    4.7288   -3.9651 O.2     1  LIG11      -0.1505
      5 O          -4.6425    4.1066   -5.3044 O.2     1  LIG11      -0.1505
      6 O          -5.2163   -0.2865   -8.0390 O.3     1  LIG11      -0.4914
      7 N          -5.5699    2.4027   -3.7397 N.pl3   1  LIG11      -0.1968
      8 N          -7.7245    2.0167   -2.9798 N.ar    1  LIG11      -0.2044
      9 N          -9.3703    0.9534   -4.3345 N.ar    1  LIG11      -0.1867
     10 N          -9.5763    1.8983   -0.8440 N.ar    1  LIG11      -0.2331
     11 N         -11.3045    1.7417   -2.4868 N.ar    1  LIG11      -0.2331
     12 C          -6.8761    1.9000   -4.0121 C.ar    1  LIG11       0.1883
     13 C          -7.1938    1.3710   -5.2466 C.ar    1  LIG11       0.2307
     14 C          -8.4664    0.8491   -5.3261 C.ar    1  LIG11       0.2639
     15 C          -6.5768    1.5606   -7.5161 C.ar    1  LIG11       0.1702
     16 C          -4.3441    4.6278   -2.8063 C.2     1  LIG11       0.0729
     17 C          -8.9769    1.5650   -3.1939 C.ar    1  LIG11       0.2027
     18 C          -6.0496    0.7025   -8.4952 C.ar    1  LIG11       0.1621
     19 C          -4.7147    4.4851   -1.5243 C.2     1  LIG11      -0.0353
     20 C          -3.8809    4.8702   -0.3758 C.ar    1  LIG11      -0.0237
     21 C          -7.3941    2.6395   -7.8772 C.ar    1  LIG11      -0.0157
     22 C          -9.9977    1.7444   -2.1218 C.ar    1  LIG11       0.1978
     23 C          -6.4071    0.9015   -9.8316 C.ar    1  LIG11      -0.0163
     24 C          -7.7473    2.8228   -9.2128 C.ar    1  LIG11      -0.0581
     25 C          -7.2613    1.9513  -10.1858 C.ar    1  LIG11      -0.0581
     26 C          -4.0357    4.1697    0.8288 C.ar    1  LIG11      -0.0546
     27 C          -2.9654    5.9305   -0.4208 C.ar    1  LIG11      -0.0546
     28 C          -3.2736    4.5018    1.9523 C.ar    1  LIG11      -0.0612
     29 C          -2.2023    6.2621    0.7031 C.ar    1  LIG11      -0.0612
     30 C          -2.3544    5.5457    1.8879 C.ar    1  LIG11      -0.0617
     31 C         -10.1360   -0.3934   -6.4228 C.3     1  LIG11       0.0805
     32 C          -4.6653   -1.1700   -9.0051 C.3     1  LIG11       0.0790
     33 C         -10.5307    2.0612    0.0913 C.ar    1  LIG11       0.0315
     34 C         -12.2104    1.9195   -1.5092 C.ar    1  LIG11       0.0315
     35 C         -11.8759    2.0835   -0.1879 C.ar    1  LIG11      -0.0254
     36 H          -4.8830    1.9288   -4.3299 H       1  LIG11       0.1753
     37 H          -3.4018    5.0503   -3.1203 H       1  LIG11       0.0838
     38 H          -5.6738    4.0245   -1.2843 H       1  LIG11       0.0637
     39 H          -7.7657    3.3352   -7.1297 H       1  LIG11       0.0655
     40 H          -6.0416    0.2570  -10.6238 H       1  LIG11       0.0655
     41 H          -8.4009    3.6447   -9.4940 H       1  LIG11       0.0619
     42 H          -7.5410    2.0933  -11.2269 H       1  LIG11       0.0619
     43 H          -4.7472    3.3494    0.9018 H       1  LIG11       0.0623
     44 H          -2.8373    6.5213   -1.3239 H       1  LIG11       0.0623
     45 H          -3.3999    3.9443    2.8768 H       1  LIG11       0.0618
     46 H          -1.4926    7.0840    0.6532 H       1  LIG11       0.0618
     47 H          -1.7614    5.8046    2.7613 H       1  LIG11       0.0618
     48 H         -10.3051   -0.9214   -7.3663 H       1  LIG11       0.0660
     49 H         -10.8889    0.3981   -6.3439 H       1  LIG11       0.0660
     50 H         -10.2416   -1.1218   -5.6113 H       1  LIG11       0.0660
     51 H          -4.0085   -1.8701   -8.4799 H       1  LIG11       0.0660
     52 H          -4.0559   -0.6297   -9.7371 H       1  LIG11       0.0660
     53 H          -5.4511   -1.7535   -9.4954 H       1  LIG11       0.0660
     54 H         -10.1666    2.1784    1.1078 H       1  LIG11       0.0831
     55 H         -13.2468    1.9272   -1.8341 H       1  LIG11       0.0831
     56 H         -12.6225    2.2220    0.5813 H       1  LIG11       0.0648
@<TRIPOS>BOND
     1     1     4    2
     2     1     5    2
     3     1     7    1
     4     1    16    1
     5     2    13    1
     6     2    15    1
     7     3    14    1
     8     3    31    1
     9     6    18    1
    10     6    32    1
    11     7    12    1
    12     8    12   ar
    13     8    17   ar
    14     9    14   ar
    15     9    17   ar
    16    10    22   ar
    17    10    33   ar
    18    11    22   ar
    19    11    34   ar
    20    12    13   ar
    21    13    14   ar
    22    15    18   ar
    23    15    21   ar
    24    16    19    2
    25    17    22    1
    26    18    23   ar
    27    19    20    1
    28    20    26   ar
    29    20    27   ar
    30    21    24   ar
    31    23    25   ar
    32    24    25   ar
    33    26    28   ar
    34    27    29   ar
    35    28    30   ar
    36    29    30   ar
    37    33    35   ar
    38    34    35   ar
    39     7    36    1
    40    16    37    1
    41    19    38    1
    42    21    39    1
    43    23    40    1
    44    24    41    1
    45    25    42    1
    46    26    43    1
    47    27    44    1
    48    28    45    1
    49    29    46    1
    50    30    47    1
    51    31    48    1
    52    31    49    1
    53    31    50    1
    54    32    51    1
    55    32    52    1
    56    32    53    1
    57    33    54    1
    58    34    55    1
    59    35    56    1
@<TRIPOS>MOLECULE
../1EDN/PCA2_17-21.pdb
 47 48 0 0 0
SMALL
GASTEIGER

@<TRIPOS>ATOM
      1  N         -4.4680    0.3970   -1.5420 N.3    17  LEU17      -0.1231
      2  CA        -5.5730   -0.5090   -1.8150 C.3    17  LEU17       0.1693
      3  CB        -5.9860   -1.2020   -0.4580 C.3    17  LEU17       0.0284
      4  CG        -7.1280   -2.2100   -0.5390 C.3    17  LEU17       0.0019
      5  CD1       -6.7120   -3.3620   -1.4700 C.3    17  LEU17       0.0001
      6  CD2       -7.4980   -2.5610    0.9130 C.3    17  LEU17       0.0001
      7  C         -6.7000    0.2280   -2.5610 C.2    17  LEU17       0.2592
      8  O         -7.1860   -0.2780   -3.5510 O.2    17  LEU17      -0.2718
      9  N         -7.2650    1.2690   -1.9650 N.am   18  ASP18      -0.1960
     10  CA        -8.5260    1.8930   -2.2590 C.3    18  ASP18       0.1840
     11  CB        -9.6810    1.0560   -1.6740 C.3    18  ASP18       0.1450
     12  CG       -11.0010    1.6360   -2.1090 C.2    18  ASP18       0.3671
     13  OD1      -11.5960    2.3310   -1.2790 O.co2  18  ASP18      -0.2456
     14  OD2      -11.5460    1.2700   -3.1630 O.co2  18  ASP18      -0.2456
     15  C         -8.5570    3.3770   -1.7380 C.2    18  ASP18       0.2622
     16  O         -8.6960    4.2620   -2.5680 O.2    18  ASP18      -0.2715
     17  N         -8.4180    3.5730   -0.4160 N.am   19  ILE19      -0.1963
     18  CA        -8.3980    4.9040    0.1930 C.3    19  ILE19       0.1727
     19  CB        -8.4260    4.8620    1.7600 C.3    19  ILE19       0.0290
     20  CG2       -7.7310    6.0060    2.5190 C.3    19  ILE19       0.0023
     21  CG1       -9.9240    4.5740    2.2500 C.3    19  ILE19       0.0022
     22  CD1      -10.9740    5.6950    2.0110 C.3    19  ILE19       0.0001
     23  C         -7.1570    5.7010   -0.3260 C.2    19  ILE19       0.2616
     24  O         -7.3050    6.7970   -0.9200 O.2    19  ILE19      -0.2715
     25  N         -5.9900    5.0720   -0.2260 N.am   20  ILE20      -0.1963
     26  CA        -4.7520    5.3490   -0.9430 C.3    20  ILE20       0.1727
     27  CB        -3.5230    4.9310   -0.1080 C.3    20  ILE20       0.0290
     28  CG2       -2.1210    5.5060   -0.7390 C.3    20  ILE20       0.0023
     29  CG1       -3.5940    5.4760    1.3470 C.3    20  ILE20       0.0022
     30  CD1       -2.3570    5.1940    2.2260 C.3    20  ILE20       0.0001
     31  C         -4.7590    4.7050   -2.3650 C.2    20  ILE20       0.2617
     32  O         -4.2060    3.6200   -2.5900 O.2    20  ILE20      -0.2715
     33  N         -5.4060    5.3330   -3.3880 N.am   21  TRP21      -0.1938
     34  CA        -5.3950    4.7680   -4.7850 C.3    21  TRP21       0.2021
     35  CB        -6.6210    3.8650   -5.0310 C.3    21  TRP21       0.0612
     36  CG        -6.7890    3.3770   -6.4480 C.ar   21  TRP21       0.0007
     37  CD1       -7.1340    4.1960   -7.4760 C.ar   21  TRP21       0.0946
     38  NE1       -7.1740    3.4060   -8.6160 N.ar   21  TRP21      -0.2442
     39  CE2       -6.9360    2.0750   -8.3350 C.ar   21  TRP21       0.0810
     40  CZ2       -6.8300    1.0510   -9.2060 C.ar   21  TRP21       0.0191
     41  CH2       -6.3330   -0.2010   -8.7710 C.ar   21  TRP21       0.0015
     42  CZ3       -5.9560   -0.2520   -7.3640 C.ar   21  TRP21       0.0001
     43  CE3       -6.0150    0.8940   -6.5860 C.ar   21  TRP21       0.0012
     44  CD2       -6.6320    2.0560   -6.9830 C.ar   21  TRP21       0.0152
     45  C         -5.1960    5.8550   -5.8260 C.2    21  TRP21       0.3845
     46  O         -4.1840    5.6720   -6.5070 O.co2  21  TRP21      -0.2437
     47  OXT       -5.9640    6.8330   -6.0170 O.co2  21  TRP21      -0.2437
@<TRIPOS>BOND
     1    40    41   ar
     2    40    39   ar
     3    41    42   ar
     4    38    39   ar
     5    38    37   ar
     6    39    44   ar
     7    37    36   ar
     8    42    43   ar
     9    44    43   ar
    10    44    36   ar
    11    46    45   ar
    12    36    35    1
    13    47    45   ar
    14    45    34    1
    15    35    34    1
    16    34    33    1
    17     8     7    2
    18    33    31   am
    19    14    12   ar
    20    32    31    2
    21    16    15    2
    22     7     9   am
    23     7     2    1
    24    31    26    1
    25    10     9    1
    26    10    15    1
    27    10    11    1
    28    12    11    1
    29    12    13   ar
    30     2     1    1
    31     2     3    1
    32    15    17   am
    33     5     4    1
    34    26    25    1
    35    26    27    1
    36    24    23    2
    37    28    27    1
    38     4     3    1
    39     4     6    1
    40    17    18    1
    41    23    25   am
    42    23    18    1
    43    27    29    1
    44    18    19    1
    45    29    30    1
    46    19    21    1
    47    19    20    1
    48    22    21    1
