@<TRIPOS>MOLECULE
../1EDN/PCA2_17-21_NOBACKBONE.pdb
 26 23 0 0 0
SMALL
GASTEIGER

@<TRIPOS>ATOM
      1  CB        -5.9860   -1.2020   -0.4580 C.3    17  LEU17       0.0000
      2  CG        -7.1280   -2.2100   -0.5390 C.3    17  LEU17       0.0000
      3  CD1       -6.7120   -3.3620   -1.4700 C.3    17  LEU17       0.0000
      4  CD2       -7.4980   -2.5610    0.9130 C.3    17  LEU17       0.0000
      5  CB        -9.6810    1.0560   -1.6740 C.3    18  ASP18       0.1258
      6  CG       -11.0010    1.6360   -2.1090 C.2    18  ASP18       0.3654
      7  OD1      -11.5960    2.3310   -1.2790 O.co2  18  ASP18      -0.2456
      8  OD2      -11.5460    1.2700   -3.1630 O.co2  18  ASP18      -0.2456
      9  CB        -8.4260    4.8620    1.7600 C.3    19  ILE19       0.0000
     10  CG2       -7.7310    6.0060    2.5190 C.3    19  ILE19       0.0000
     11  CG1       -9.9240    4.5740    2.2500 C.3    19  ILE19       0.0000
     12  CD1      -10.9740    5.6950    2.0110 C.3    19  ILE19       0.0000
     13  CB        -3.5230    4.9310   -0.1080 C.3    20  ILE20       0.0000
     14  CG2       -2.1210    5.5060   -0.7390 C.3    20  ILE20       0.0000
     15  CG1       -3.5940    5.4760    1.3470 C.3    20  ILE20       0.0000
     16  CD1       -2.3570    5.1940    2.2260 C.3    20  ILE20       0.0000
     17  CB        -6.6210    3.8650   -5.0310 C.3    21  TRP21       0.0327
     18  CG        -6.7890    3.3770   -6.4480 C.ar   21  TRP21      -0.0013
     19  CD1       -7.1340    4.1960   -7.4760 C.ar   21  TRP21       0.0946
     20  NE1       -7.1740    3.4060   -8.6160 N.ar   21  TRP21      -0.2442
     21  CE2       -6.9360    2.0750   -8.3350 C.ar   21  TRP21       0.0810
     22  CZ2       -6.8300    1.0510   -9.2060 C.ar   21  TRP21       0.0191
     23  CH2       -6.3330   -0.2010   -8.7710 C.ar   21  TRP21       0.0015
     24  CZ3       -5.9560   -0.2520   -7.3640 C.ar   21  TRP21       0.0001
     25  CE3       -6.0150    0.8940   -6.5860 C.ar   21  TRP21       0.0012
     26  CD2       -6.6320    2.0560   -6.9830 C.ar   21  TRP21       0.0152
@<TRIPOS>BOND
     1    22    23   ar
     2    22    21   ar
     3    23    24   ar
     4    20    21   ar
     5    20    19   ar
     6    21    26   ar
     7    19    18   ar
     8    24    25   ar
     9    26    25   ar
    10    26    18   ar
    11    18    17    1
    12     8     6   ar
    13     6     5    1
    14     6     7   ar
    15     3     2    1
    16    14    13    1
    17     2     1    1
    18     2     4    1
    19    13    15    1
    20    15    16    1
    21     9    11    1
    22     9    10    1
    23    12    11    1
@<TRIPOS>MOLECULE
01178588C
 55 57 0 0 0
SMALL
GASTEIGER

@<TRIPOS>ATOM
      1 S          -8.2810    2.5851   -0.3403 S.O2    1  LIG11       0.0756
      2 C          -9.7746    2.0318   -1.1031 C.ar    1  LIG11       0.1344
      3 N          -8.4078    4.2692   -0.3625 N.pl3   1  LIG11      -0.1951
      4 O          -7.1491    2.2456   -1.1661 O.2     1  LIG11      -0.1499
      5 O          -8.2917    2.1534    1.0455 O.2     1  LIG11      -0.1499
      6 C          -9.9532    1.8732   -2.4762 C.ar    1  LIG11       0.0975
      7 C         -10.8057    1.6300   -0.2307 C.ar    1  LIG11      -0.0315
      8 C          -9.2055    4.8118    0.6779 C.ar    1  LIG11       0.2006
      9 C          -9.0028    2.1741   -3.5710 C.ar    1  LIG11       0.0023
     10 N         -11.1293    1.3547   -2.9561 N.ar    1  LIG11      -0.2530
     11 C         -11.9877    1.1055   -0.7305 C.ar    1  LIG11      -0.0417
     12 C          -8.6720    5.1986    1.9143 C.ar    1  LIG11       0.2574
     13 N         -10.5281    4.8472    0.4198 N.ar    1  LIG11      -0.2325
     14 C          -8.7966    1.2265   -4.5926 C.ar    1  LIG11      -0.0523
     15 C          -8.3235    3.3927   -3.6993 C.ar    1  LIG11      -0.0523
     16 C         -12.1013    0.9879   -2.0960 C.ar    1  LIG11       0.0284
     17 N          -9.4476    5.6809    2.9176 N.ar    1  LIG11      -0.2137
     18 O          -7.3021    5.1204    2.0800 O.3     1  LIG11      -0.4773
     19 C         -11.2954    5.3285    1.4269 C.ar    1  LIG11       0.0510
     20 C          -7.9195    1.4594   -5.6604 C.ar    1  LIG11      -0.0579
     21 C          -7.4278    3.6225   -4.7573 C.ar    1  LIG11      -0.0579
     22 C         -10.7770    5.7383    2.6545 C.ar    1  LIG11       0.0602
     23 C          -6.8945    5.3711    3.4206 C.3     1  LIG11       0.0805
     24 C          -7.2182    2.6615   -5.7569 C.ar    1  LIG11      -0.0465
     25 C         -11.6797    6.2648    3.7261 C.3     1  LIG11      -0.0208
     26 C          -6.1888    2.9080   -6.8472 C.3     1  LIG11      -0.0174
     27 C          -6.5707    2.6138   -8.3184 C.3     1  LIG11       0.0085
     28 C          -6.5451    1.0999   -8.6562 C.2     1  LIG11       0.0477
     29 C          -7.8834    3.3014   -8.7118 C.3     1  LIG11      -0.0544
     30 C          -5.4488    3.1479   -9.2366 C.3     1  LIG11      -0.0544
     31 O          -5.5966    0.4371   -8.1446 O.co2   1  LIG11      -0.5493
     32 O          -7.4617    0.6880   -9.4234 O.co2   1  LIG11      -0.5493
     33 H          -7.4667    4.6570   -0.4175 H       1  LIG11       0.1754
     34 H         -10.6874    1.7226    0.8473 H       1  LIG11       0.0638
     35 H         -12.7881    0.7909   -0.0720 H       1  LIG11       0.0633
     36 H          -9.3303    0.2773   -4.5708 H       1  LIG11       0.0624
     37 H          -8.4751    4.1897   -2.9800 H       1  LIG11       0.0624
     38 H         -12.9949    0.5790   -2.5576 H       1  LIG11       0.0830
     39 H         -12.3590    5.3781    1.2156 H       1  LIG11       0.0848
     40 H          -7.7896    0.6777   -6.4065 H       1  LIG11       0.0620
     41 H          -6.8858    4.5642   -4.7915 H       1  LIG11       0.0620
     42 H          -5.8176    5.1878    3.4815 H       1  LIG11       0.0660
     43 H          -7.3867    4.6929    4.1272 H       1  LIG11       0.0660
     44 H          -7.0711    6.4174    3.6927 H       1  LIG11       0.0660
     45 H         -11.1083    6.5151    4.6258 H       1  LIG11       0.0293
     46 H         -12.4282    5.5139    3.9974 H       1  LIG11       0.0293
     47 H         -12.1883    7.1710    3.3830 H       1  LIG11       0.0293
     48 H          -5.2842    2.3547   -6.5621 H       1  LIG11       0.0322
     49 H          -5.9022    3.9684   -6.7930 H       1  LIG11       0.0322
     50 H          -7.8507    4.3730   -8.4856 H       1  LIG11       0.0239
     51 H          -8.7412    2.8692   -8.1864 H       1  LIG11       0.0239
     52 H          -8.0836    3.2020   -9.7854 H       1  LIG11       0.0239
     53 H          -5.3645    4.2381   -9.1607 H       1  LIG11       0.0239
     54 H          -5.6382    2.9052  -10.2896 H       1  LIG11       0.0239
     55 H          -4.4711    2.7259   -8.9745 H       1  LIG11       0.0239
@<TRIPOS>BOND
     1     1     5    2
     2     1     4    2
     3     1     3    1
     4     1     2    1
     5     2     6   ar
     6     2     7   ar
     7     3     8    1
     8     6    10   ar
     9     6     9    1
    10     7    11   ar
    11     8    12   ar
    12     8    13   ar
    13     9    14   ar
    14     9    15   ar
    15    10    16   ar
    16    11    16   ar
    17    12    17   ar
    18    12    18    1
    19    13    19   ar
    20    14    20   ar
    21    15    21   ar
    22    17    22   ar
    23    18    23    1
    24    19    22   ar
    25    20    24   ar
    26    21    24   ar
    27    22    25    1
    28    24    26    1
    29    26    27    1
    30    27    30    1
    31    27    29    1
    32    27    28    1
    33    28    32   ar
    34    28    31   ar
    35     3    33    1
    36     7    34    1
    37    11    35    1
    38    14    36    1
    39    15    37    1
    40    16    38    1
    41    19    39    1
    42    20    40    1
    43    21    41    1
    44    23    42    1
    45    23    43    1
    46    23    44    1
    47    25    45    1
    48    25    46    1
    49    25    47    1
    50    26    48    1
    51    26    49    1
    52    29    50    1
    53    29    51    1
    54    29    52    1
    55    30    53    1
    56    30    54    1
    57    30    55    1
@<TRIPOS>MOLECULE
../1EDN/PCA2_17-21.pdb
 47 48 0 0 0
SMALL
GASTEIGER

@<TRIPOS>ATOM
      1  N         -4.4680    0.3970   -1.5420 N.3    17  LEU17      -0.1231
      2  CA        -5.5730   -0.5090   -1.8150 C.3    17  LEU17       0.1693
      3  CB        -5.9860   -1.2020   -0.4580 C.3    17  LEU17       0.0284
      4  CG        -7.1280   -2.2100   -0.5390 C.3    17  LEU17       0.0019
      5  CD1       -6.7120   -3.3620   -1.4700 C.3    17  LEU17       0.0001
      6  CD2       -7.4980   -2.5610    0.9130 C.3    17  LEU17       0.0001
      7  C         -6.7000    0.2280   -2.5610 C.2    17  LEU17       0.2592
      8  O         -7.1860   -0.2780   -3.5510 O.2    17  LEU17      -0.2718
      9  N         -7.2650    1.2690   -1.9650 N.am   18  ASP18      -0.1960
     10  CA        -8.5260    1.8930   -2.2590 C.3    18  ASP18       0.1840
     11  CB        -9.6810    1.0560   -1.6740 C.3    18  ASP18       0.1450
     12  CG       -11.0010    1.6360   -2.1090 C.2    18  ASP18       0.3671
     13  OD1      -11.5960    2.3310   -1.2790 O.co2  18  ASP18      -0.2456
     14  OD2      -11.5460    1.2700   -3.1630 O.co2  18  ASP18      -0.2456
     15  C         -8.5570    3.3770   -1.7380 C.2    18  ASP18       0.2622
     16  O         -8.6960    4.2620   -2.5680 O.2    18  ASP18      -0.2715
     17  N         -8.4180    3.5730   -0.4160 N.am   19  ILE19      -0.1963
     18  CA        -8.3980    4.9040    0.1930 C.3    19  ILE19       0.1727
     19  CB        -8.4260    4.8620    1.7600 C.3    19  ILE19       0.0290
     20  CG2       -7.7310    6.0060    2.5190 C.3    19  ILE19       0.0023
     21  CG1       -9.9240    4.5740    2.2500 C.3    19  ILE19       0.0022
     22  CD1      -10.9740    5.6950    2.0110 C.3    19  ILE19       0.0001
     23  C         -7.1570    5.7010   -0.3260 C.2    19  ILE19       0.2616
     24  O         -7.3050    6.7970   -0.9200 O.2    19  ILE19      -0.2715
     25  N         -5.9900    5.0720   -0.2260 N.am   20  ILE20      -0.1963
     26  CA        -4.7520    5.3490   -0.9430 C.3    20  ILE20       0.1727
     27  CB        -3.5230    4.9310   -0.1080 C.3    20  ILE20       0.0290
     28  CG2       -2.1210    5.5060   -0.7390 C.3    20  ILE20       0.0023
     29  CG1       -3.5940    5.4760    1.3470 C.3    20  ILE20       0.0022
     30  CD1       -2.3570    5.1940    2.2260 C.3    20  ILE20       0.0001
     31  C         -4.7590    4.7050   -2.3650 C.2    20  ILE20       0.2617
     32  O         -4.2060    3.6200   -2.5900 O.2    20  ILE20      -0.2715
     33  N         -5.4060    5.3330   -3.3880 N.am   21  TRP21      -0.1938
     34  CA        -5.3950    4.7680   -4.7850 C.3    21  TRP21       0.2021
     35  CB        -6.6210    3.8650   -5.0310 C.3    21  TRP21       0.0612
     36  CG        -6.7890    3.3770   -6.4480 C.ar   21  TRP21       0.0007
     37  CD1       -7.1340    4.1960   -7.4760 C.ar   21  TRP21       0.0946
     38  NE1       -7.1740    3.4060   -8.6160 N.ar   21  TRP21      -0.2442
     39  CE2       -6.9360    2.0750   -8.3350 C.ar   21  TRP21       0.0810
     40  CZ2       -6.8300    1.0510   -9.2060 C.ar   21  TRP21       0.0191
     41  CH2       -6.3330   -0.2010   -8.7710 C.ar   21  TRP21       0.0015
     42  CZ3       -5.9560   -0.2520   -7.3640 C.ar   21  TRP21       0.0001
     43  CE3       -6.0150    0.8940   -6.5860 C.ar   21  TRP21       0.0012
     44  CD2       -6.6320    2.0560   -6.9830 C.ar   21  TRP21       0.0152
     45  C         -5.1960    5.8550   -5.8260 C.2    21  TRP21       0.3845
     46  O         -4.1840    5.6720   -6.5070 O.co2  21  TRP21      -0.2437
     47  OXT       -5.9640    6.8330   -6.0170 O.co2  21  TRP21      -0.2437
@<TRIPOS>BOND
     1    40    41   ar
     2    40    39   ar
     3    41    42   ar
     4    38    39   ar
     5    38    37   ar
     6    39    44   ar
     7    37    36   ar
     8    42    43   ar
     9    44    43   ar
    10    44    36   ar
    11    46    45   ar
    12    36    35    1
    13    47    45   ar
    14    45    34    1
    15    35    34    1
    16    34    33    1
    17     8     7    2
    18    33    31   am
    19    14    12   ar
    20    32    31    2
    21    16    15    2
    22     7     9   am
    23     7     2    1
    24    31    26    1
    25    10     9    1
    26    10    15    1
    27    10    11    1
    28    12    11    1
    29    12    13   ar
    30     2     1    1
    31     2     3    1
    32    15    17   am
    33     5     4    1
    34    26    25    1
    35    26    27    1
    36    24    23    2
    37    28    27    1
    38     4     3    1
    39     4     6    1
    40    17    18    1
    41    23    25   am
    42    23    18    1
    43    27    29    1
    44    18    19    1
    45    29    30    1
    46    19    21    1
    47    19    20    1
    48    22    21    1
