@<TRIPOS>MOLECULE
../1EDN/PCA3_17-21_NOBACKBONE.pdb
 26 23 0 0 0
SMALL
GASTEIGER

@<TRIPOS>ATOM
      1  CB        -5.7360   -1.8160   -1.1010 C.3    17  LEU17       0.0000
      2  CG        -6.9950   -2.5690   -1.5730 C.3    17  LEU17       0.0000
      3  CD1       -6.7530   -3.1800   -3.0080 C.3    17  LEU17       0.0000
      4  CD2       -7.2580   -3.7400   -0.6960 C.3    17  LEU17       0.0000
      5  CB        -9.1090    1.3410    0.3760 C.3    18  ASP18       0.1258
      6  CG       -10.1470    2.2990    0.9520 C.2    18  ASP18       0.3654
      7  OD1      -11.0720    2.5310    0.1500 O.co2  18  ASP18      -0.2456
      8  OD2      -10.1960    2.6850    2.1610 O.co2  18  ASP18      -0.2456
      9  CB        -5.3140    3.8890    3.0670 C.3    19  ILE19       0.0000
     10  CG2       -4.6600    5.0630    3.8540 C.3    19  ILE19       0.0000
     11  CG1       -6.1440    2.9790    3.9890 C.3    19  ILE19       0.0000
     12  CD1       -5.5170    2.2940    5.2130 C.3    19  ILE19       0.0000
     13  CB        -2.4460    5.7340   -1.0120 C.3    20  ILE20       0.0000
     14  CG2       -2.3030    7.0110   -0.1100 C.3    20  ILE20       0.0000
     15  CG1       -1.4300    4.6170   -0.6100 C.3    20  ILE20       0.0000
     16  CD1        0.0800    4.9990   -0.7110 C.3    20  ILE20       0.0000
     17  CB        -6.2680    3.7450   -4.8170 C.3    21  TRP21       0.0327
     18  CG        -6.5090    2.9660   -6.0890 C.ar   21  TRP21      -0.0013
     19  CD1       -7.0550    3.4090   -7.2190 C.ar   21  TRP21       0.0946
     20  NE1       -7.1560    2.4190   -8.1260 N.ar   21  TRP21      -0.2442
     21  CE2       -6.6880    1.2600   -7.6470 C.ar   21  TRP21       0.0810
     22  CZ2       -6.5320   -0.1050   -8.0600 C.ar   21  TRP21       0.0191
     23  CH2       -5.9630   -1.0770   -7.2340 C.ar   21  TRP21       0.0015
     24  CZ3       -5.4330   -0.7150   -5.9030 C.ar   21  TRP21       0.0001
     25  CE3       -5.5290    0.6400   -5.5430 C.ar   21  TRP21       0.0012
     26  CD2       -6.2440    1.5830   -6.3190 C.ar   21  TRP21       0.0152
@<TRIPOS>BOND
     1    20    21   ar
     2    20    19   ar
     3    22    21   ar
     4    22    23   ar
     5    21    26   ar
     6    23    24   ar
     7    19    18   ar
     8    26    18   ar
     9    26    25   ar
    10    18    17    1
    11    24    25   ar
    12     3     2    1
    13     2     1    1
    14     2     4    1
    15    13    15    1
    16    13    14    1
    17    16    15    1
    18     7     6   ar
    19     5     6    1
    20     6     8   ar
    21     9    10    1
    22     9    11    1
    23    11    12    1
@<TRIPOS>MOLECULE
HTS1204-03362316-01
 87 90 0 0 0
SMALL
USER_CHARGES

@<TRIPOS>ATOM
      1 C1         -3.5381    3.8460   -1.2726 C.ar    1  UNK11      -0.0199
      2 N1         -1.4269    4.5589   -1.2277 N.ar    1  UNK11      -0.3494
      3 C2         -5.1108   -0.6302   -5.7956 C.2     1  UNK11       0.3028
      4 C3         -2.2458    3.5516   -1.6622 C.ar    1  UNK11       0.0086
      5 C4         -4.7309    1.6638    0.7486 C.2     1  UNK11       0.2342
      6 C5         -3.4948    5.1236   -0.6239 C.ar    1  UNK11       0.0031
      7 C6         -3.9936   -0.1772   -2.3903 C.2     1  UNK11       0.2340
      8 C7         -2.1623    5.5425   -0.6047 C.ar    1  UNK11       0.0491
      9 N2         -5.0576   -0.9053   -4.4824 N.am    1  UNK11      -0.2879
     10 N3         -5.4833    0.5888   -6.3046 N.am    1  UNK11      -0.2856
     11 N4         -3.8805    0.6807   -1.3399 N.am    1  UNK11      -0.3022
     12 N5         -5.5109    2.6032    1.3816 N.am    1  UNK11      -0.3054
     13 C8         -4.8292    1.6690   -0.7985 C.3     1  UNK11       0.1034
     14 C9         -5.3056   -0.2278   -3.2040 C.3     1  UNK11       0.1011
     15 C10        -5.6370    2.6808    2.8623 C.3     1  UNK11       0.0680
     16 C11        -4.7581    3.0219   -1.5171 C.3     1  UNK11       0.0013
     17 C12        -5.1655    4.0432    3.4609 C.2     1  UNK11       0.0623
     18 C13        -7.0349    2.2358    3.3279 C.3     1  UNK11       0.0133
     19 O1         -4.8003   -1.5731   -6.5355 O.2     1  UNK11      -0.2526
     20 O2         -3.0303   -0.9010   -2.6692 O.2     1  UNK11      -0.2738
     21 O3         -4.1440    0.7553    1.3397 O.2     1  UNK11      -0.2738
     22 N6         -9.2965    1.9351    2.4655 N.ar    1  UNK11      -0.2598
     23 O4         -5.9396    4.6020    4.2866 O.co2   1  UNK11      -0.5479
     24 C14        -6.5267   -0.8583   -2.5065 C.3     1  UNK11      -0.0236
     25 C15        -8.2548    2.7998    2.6266 C.ar    1  UNK11       0.0434
     26 O5         -4.0711    4.4706    2.9952 O.co2   1  UNK11      -0.5479
     27 C16         0.0091    4.5785   -1.3832 C.3     1  UNK11       0.0119
     28 C17        -5.8145    1.7838   -5.5279 C.3     1  UNK11       0.0161
     29 C18        -5.4725    0.7325   -7.7644 C.3     1  UNK11       0.0161
     30 C19        -1.7668    6.7479   -0.0016 C.ar    1  UNK11      -0.0376
     31 C20        -4.4703    5.9545   -0.0320 C.ar    1  UNK11      -0.0523
     32 C21        -6.4495   -2.3268   -2.0394 C.3     1  UNK11      -0.0446
     33 C22       -10.4338    2.4084    1.9125 C.ar    1  UNK11       0.0279
     34 C23        -8.3543    4.1316    2.2306 C.ar    1  UNK11      -0.0403
     35 C24        -7.8244   -2.7312   -1.4853 C.3     1  UNK11      -0.0626
     36 C25        -5.3985   -2.5747   -0.9577 C.3     1  UNK11      -0.0626
     37 C26        -6.2236    3.0368   -6.3076 C.3     1  UNK11      -0.0371
     38 C27        -6.8712    0.8206   -8.3795 C.3     1  UNK11      -0.0371
     39 C28        -4.0848    7.1469    0.5872 C.ar    1  UNK11      -0.0611
     40 C29        -2.7506    7.5362    0.6016 C.ar    1  UNK11      -0.0598
     41 C30       -10.5996    3.7117    1.4837 C.ar    1  UNK11      -0.0436
     42 C31        -9.5347    4.5864    1.6435 C.ar    1  UNK11      -0.0586
     43 C32        -7.5605    2.9181   -7.0409 C.3     1  UNK11      -0.0516
     44 C33        -7.9337    1.5245   -7.5385 C.3     1  UNK11      -0.0516
     45 H          -1.8453    2.6947   -2.1887 H       1  UNK11       0.0812
     46 H          -4.6132   -1.8089   -4.3588 H       1  UNK11       0.1510
     47 H          -3.0184    0.5827   -0.8102 H       1  UNK11       0.1495
     48 H          -5.5585    3.5164    0.9510 H       1  UNK11       0.1494
     49 H          -5.8317    1.2914   -0.9960 H       1  UNK11       0.0598
     50 H          -5.5553    0.8083   -3.3842 H       1  UNK11       0.0595
     51 H          -4.9269    1.9600    3.2910 H       1  UNK11       0.0564
     52 H          -5.6491    3.6061   -1.2568 H       1  UNK11       0.0337
     53 H          -4.8313    2.8604   -2.6001 H       1  UNK11       0.0337
     54 H          -7.1569    2.4192    4.4026 H       1  UNK11       0.0350
     55 H          -7.0802    1.1441    3.2074 H       1  UNK11       0.0350
     56 H          -7.3676   -0.7801   -3.2115 H       1  UNK11       0.0290
     57 H          -6.8255   -0.2561   -1.6456 H       1  UNK11       0.0290
     58 H           0.3287    3.7061   -1.9587 H       1  UNK11       0.0456
     59 H           0.4641    4.5547   -0.3897 H       1  UNK11       0.0456
     60 H           0.2887    5.4916   -1.9151 H       1  UNK11       0.0456
     61 H          -4.9225    2.0315   -4.9425 H       1  UNK11       0.0465
     62 H          -6.6378    1.5264   -4.8549 H       1  UNK11       0.0465
     63 H          -4.9476   -0.1018   -8.2438 H       1  UNK11       0.0465
     64 H          -4.8697    1.6087   -8.0251 H       1  UNK11       0.0465
     65 H          -0.7257    7.0464    0.0394 H       1  UNK11       0.0638
     66 H          -5.5127    5.6578    0.0013 H       1  UNK11       0.0624
     67 H          -6.2305   -2.9726   -2.8977 H       1  UNK11       0.0296
     68 H         -11.2386    1.6846    1.8300 H       1  UNK11       0.0829
     69 H          -7.5407    4.8304    2.3960 H       1  UNK11       0.0635
     70 H          -8.0927   -2.1227   -0.6136 H       1  UNK11       0.0232
     71 H          -7.8305   -3.7817   -1.1768 H       1  UNK11       0.0232
     72 H          -8.6059   -2.6010   -2.2411 H       1  UNK11       0.0232
     73 H          -5.4367   -1.8069   -0.1775 H       1  UNK11       0.0232
     74 H          -4.3922   -2.5951   -1.3802 H       1  UNK11       0.0232
     75 H          -5.5500   -3.5472   -0.4764 H       1  UNK11       0.0232
     76 H          -5.4376    3.3298   -7.0122 H       1  UNK11       0.0280
     77 H          -6.2971    3.8756   -5.6031 H       1  UNK11       0.0280
     78 H          -7.2295   -0.1984   -8.5747 H       1  UNK11       0.0280
     79 H          -6.7933    1.3071   -9.3594 H       1  UNK11       0.0280
     80 H          -4.8308    7.7447    1.1039 H       1  UNK11       0.0618
     81 H          -2.4668    8.4465    1.1218 H       1  UNK11       0.0618
     82 H         -11.5370    4.0403    1.0527 H       1  UNK11       0.0633
     83 H          -9.6211    5.6251    1.3397 H       1  UNK11       0.0619
     84 H          -7.5660    3.6243   -7.8800 H       1  UNK11       0.0266
     85 H          -8.3568    3.2517   -6.3627 H       1  UNK11       0.0266
     86 H          -8.1917    0.8905   -6.6803 H       1  UNK11       0.0266
     87 H          -8.8549    1.6004   -8.1296 H       1  UNK11       0.0266
@<TRIPOS>BOND
     1     2     4   ar
     2     3     9   am
     3     1     4   ar
     4     5    13    1
     5     1     6   ar
     6     7    11   am
     7     6     8   ar
     8     9    14    1
     9     3    10   am
    10    11    13    1
    11     5    12   am
    12    13    16    1
    13     7    14    1
    14    12    15    1
    15     1    16    1
    16    15    17    1
    17    15    18    1
    18     3    19    2
    19     7    20    2
    20     5    21    2
    21    22    25   ar
    22    17    23   ar
    23    14    24    1
    24    18    25    1
    25    17    26   ar
    26     2    27    1
    27    10    28    1
    28    10    29    1
    29     8    30   ar
    30     6    31   ar
    31    24    32    1
    32    22    33   ar
    33    25    34   ar
    34    32    35    1
    35    32    36    1
    36    28    37    1
    37    29    38    1
    38    31    39   ar
    39    39    40   ar
    40    41    42   ar
    41    34    42   ar
    42    37    43    1
    43    38    44    1
    44     2     8   ar
    45    30    40   ar
    46    33    41   ar
    47    43    44    1
    48     4    45    1
    49     9    46    1
    50    11    47    1
    51    12    48    1
    52    13    49    1
    53    14    50    1
    54    15    51    1
    55    16    52    1
    56    16    53    1
    57    18    54    1
    58    18    55    1
    59    24    56    1
    60    24    57    1
    61    27    58    1
    62    27    59    1
    63    27    60    1
    64    28    61    1
    65    28    62    1
    66    29    63    1
    67    29    64    1
    68    30    65    1
    69    31    66    1
    70    32    67    1
    71    33    68    1
    72    34    69    1
    73    35    70    1
    74    35    71    1
    75    35    72    1
    76    36    73    1
    77    36    74    1
    78    36    75    1
    79    37    76    1
    80    37    77    1
    81    38    78    1
    82    38    79    1
    83    39    80    1
    84    40    81    1
    85    41    82    1
    86    42    83    1
    87    43    84    1
    88    43    85    1
    89    44    86    1
    90    44    87    1
@<TRIPOS>MOLECULE
../1EDN/PCA3_17-21.pdb
 47 48 0 0 0
SMALL
GASTEIGER

@<TRIPOS>ATOM
      1  N         -4.2370    0.0490   -1.5930 N.3    17  LEU17      -0.1231
      2  CA        -5.5250   -0.5610   -1.9200 C.3    17  LEU17       0.1693
      3  CB        -5.7360   -1.8160   -1.1010 C.3    17  LEU17       0.0284
      4  CG        -6.9950   -2.5690   -1.5730 C.3    17  LEU17       0.0019
      5  CD1       -6.7530   -3.1800   -3.0080 C.3    17  LEU17       0.0001
      6  CD2       -7.2580   -3.7400   -0.6960 C.3    17  LEU17       0.0001
      7  C         -6.6810    0.4320   -1.9250 C.2    17  LEU17       0.2592
      8  O         -7.3270    0.6200   -2.9560 O.2    17  LEU17      -0.2718
      9  N         -6.9500    1.1080   -0.7900 N.am   18  ASP18      -0.1960
     10  CA        -8.0880    2.0070   -0.5710 C.3    18  ASP18       0.1840
     11  CB        -9.1090    1.3410    0.3760 C.3    18  ASP18       0.1450
     12  CG       -10.1470    2.2990    0.9520 C.2    18  ASP18       0.3671
     13  OD1      -11.0720    2.5310    0.1500 O.co2  18  ASP18      -0.2456
     14  OD2      -10.1960    2.6850    2.1610 O.co2  18  ASP18      -0.2456
     15  C         -7.6280    3.3500    0.0060 C.2    18  ASP18       0.2622
     16  O         -7.9950    4.4650   -0.3580 O.2    18  ASP18      -0.2715
     17  N         -6.8140    3.2050    1.0390 N.am   19  ILE19      -0.1963
     18  CA        -6.1800    4.3790    1.8160 C.3    19  ILE19       0.1727
     19  CB        -5.3140    3.8890    3.0670 C.3    19  ILE19       0.0290
     20  CG2       -4.6600    5.0630    3.8540 C.3    19  ILE19       0.0023
     21  CG1       -6.1440    2.9790    3.9890 C.3    19  ILE19       0.0022
     22  CD1       -5.5170    2.2940    5.2130 C.3    19  ILE19       0.0001
     23  C         -5.2670    5.2520    0.8640 C.2    19  ILE19       0.2616
     24  O         -5.3920    6.4650    0.9090 O.2    19  ILE19      -0.2715
     25  N         -4.4890    4.6060    0.0020 N.am   20  ILE20      -0.1963
     26  CA        -3.9690    5.2910   -1.1850 C.3    20  ILE20       0.1727
     27  CB        -2.4460    5.7340   -1.0120 C.3    20  ILE20       0.0290
     28  CG2       -2.3030    7.0110   -0.1100 C.3    20  ILE20       0.0023
     29  CG1       -1.4300    4.6170   -0.6100 C.3    20  ILE20       0.0022
     30  CD1        0.0800    4.9990   -0.7110 C.3    20  ILE20       0.0001
     31  C         -4.1660    4.3690   -2.4130 C.2    20  ILE20       0.2617
     32  O         -3.9200    3.1710   -2.5010 O.2    20  ILE20      -0.2715
     33  N         -4.6410    5.0460   -3.5090 N.am   21  TRP21      -0.1938
     34  CA        -4.8980    4.4430   -4.8120 C.3    21  TRP21       0.2021
     35  CB        -6.2680    3.7450   -4.8170 C.3    21  TRP21       0.0612
     36  CG        -6.5090    2.9660   -6.0890 C.ar   21  TRP21       0.0007
     37  CD1       -7.0550    3.4090   -7.2190 C.ar   21  TRP21       0.0946
     38  NE1       -7.1560    2.4190   -8.1260 N.ar   21  TRP21      -0.2442
     39  CE2       -6.6880    1.2600   -7.6470 C.ar   21  TRP21       0.0810
     40  CZ2       -6.5320   -0.1050   -8.0600 C.ar   21  TRP21       0.0191
     41  CH2       -5.9630   -1.0770   -7.2340 C.ar   21  TRP21       0.0015
     42  CZ3       -5.4330   -0.7150   -5.9030 C.ar   21  TRP21       0.0001
     43  CE3       -5.5290    0.6400   -5.5430 C.ar   21  TRP21       0.0012
     44  CD2       -6.2440    1.5830   -6.3190 C.ar   21  TRP21       0.0152
     45  C         -4.7460    5.5030   -5.9410 C.2    21  TRP21       0.3845
     46  O         -5.6740    6.3580   -6.0770 O.co2  21  TRP21      -0.2437
     47  OXT       -3.7150    5.4030   -6.6310 O.co2  21  TRP21      -0.2437
@<TRIPOS>BOND
     1    38    39   ar
     2    38    37   ar
     3    40    39   ar
     4    40    41   ar
     5    39    44   ar
     6    41    42   ar
     7    37    36   ar
     8    47    45   ar
     9    44    36   ar
    10    44    43   ar
    11    36    35    1
    12    46    45   ar
    13    45    34    1
    14    42    43   ar
    15    35    34    1
    16    34    33    1
    17    33    31   am
    18     5     4    1
    19     8     7    2
    20    32    31    2
    21    31    26    1
    22     7     2    1
    23     7     9   am
    24     2     1    1
    25     2     3    1
    26     4     3    1
    27     4     6    1
    28    26    27    1
    29    26    25    1
    30    27    29    1
    31    27    28    1
    32     9    10    1
    33    30    29    1
    34    10    15    1
    35    10    11    1
    36    16    15    2
    37    25    23   am
    38    15    17   am
    39    13    12   ar
    40    11    12    1
    41    23    24    2
    42    23    18    1
    43    12    14   ar
    44    17    18    1
    45    18    19    1
    46    19    20    1
    47    19    21    1
    48    21    22    1
