@<TRIPOS>MOLECULE
../1EDN/PCA3_17-21_NOBACKBONE.pdb
 26 23 0 0 0
SMALL
GASTEIGER

@<TRIPOS>ATOM
      1  CB        -5.7360   -1.8160   -1.1010 C.3    17  LEU17       0.0000
      2  CG        -6.9950   -2.5690   -1.5730 C.3    17  LEU17       0.0000
      3  CD1       -6.7530   -3.1800   -3.0080 C.3    17  LEU17       0.0000
      4  CD2       -7.2580   -3.7400   -0.6960 C.3    17  LEU17       0.0000
      5  CB        -9.1090    1.3410    0.3760 C.3    18  ASP18       0.1258
      6  CG       -10.1470    2.2990    0.9520 C.2    18  ASP18       0.3654
      7  OD1      -11.0720    2.5310    0.1500 O.co2  18  ASP18      -0.2456
      8  OD2      -10.1960    2.6850    2.1610 O.co2  18  ASP18      -0.2456
      9  CB        -5.3140    3.8890    3.0670 C.3    19  ILE19       0.0000
     10  CG2       -4.6600    5.0630    3.8540 C.3    19  ILE19       0.0000
     11  CG1       -6.1440    2.9790    3.9890 C.3    19  ILE19       0.0000
     12  CD1       -5.5170    2.2940    5.2130 C.3    19  ILE19       0.0000
     13  CB        -2.4460    5.7340   -1.0120 C.3    20  ILE20       0.0000
     14  CG2       -2.3030    7.0110   -0.1100 C.3    20  ILE20       0.0000
     15  CG1       -1.4300    4.6170   -0.6100 C.3    20  ILE20       0.0000
     16  CD1        0.0800    4.9990   -0.7110 C.3    20  ILE20       0.0000
     17  CB        -6.2680    3.7450   -4.8170 C.3    21  TRP21       0.0327
     18  CG        -6.5090    2.9660   -6.0890 C.ar   21  TRP21      -0.0013
     19  CD1       -7.0550    3.4090   -7.2190 C.ar   21  TRP21       0.0946
     20  NE1       -7.1560    2.4190   -8.1260 N.ar   21  TRP21      -0.2442
     21  CE2       -6.6880    1.2600   -7.6470 C.ar   21  TRP21       0.0810
     22  CZ2       -6.5320   -0.1050   -8.0600 C.ar   21  TRP21       0.0191
     23  CH2       -5.9630   -1.0770   -7.2340 C.ar   21  TRP21       0.0015
     24  CZ3       -5.4330   -0.7150   -5.9030 C.ar   21  TRP21       0.0001
     25  CE3       -5.5290    0.6400   -5.5430 C.ar   21  TRP21       0.0012
     26  CD2       -6.2440    1.5830   -6.3190 C.ar   21  TRP21       0.0152
@<TRIPOS>BOND
     1    20    21   ar
     2    20    19   ar
     3    22    21   ar
     4    22    23   ar
     5    21    26   ar
     6    23    24   ar
     7    19    18   ar
     8    26    18   ar
     9    26    25   ar
    10    18    17    1
    11    24    25   ar
    12     3     2    1
    13     2     1    1
    14     2     4    1
    15    13    15    1
    16    13    14    1
    17    16    15    1
    18     7     6   ar
    19     5     6    1
    20     6     8   ar
    21     9    10    1
    22     9    11    1
    23    11    12    1
@<TRIPOS>MOLECULE
159594
 75 78 0 0 0
SMALL
GASTEIGER

@<TRIPOS>ATOM
      1 O          -5.6213   -2.2436   -1.1101 O.co2   1  LIG11      -0.5493
      2 O          -7.8919   -2.4840   -1.1544 O.co2   1  LIG11      -0.5493
      3 O          -5.0424    0.2397   -7.9958 O.3     1  LIG11      -0.4526
      4 O          -3.6259    3.1415   -2.0182 O.2     1  LIG11      -0.2697
      5 O          -6.7528    1.9292   -8.1867 O.3     1  LIG11      -0.4526
      6 O         -11.1275    3.1581    1.1652 O.3     1  LIG11      -0.4951
      7 N          -5.4591    1.1898   -1.4590 N.4     1  LIG11       0.2481
      8 N          -2.9302    3.5621    0.1399 N.am    1  LIG11      -0.2971
      9 C          -6.9305   -0.5895   -2.1442 C.3     1  LIG11       0.0574
     10 C          -5.7923   -0.4662   -3.1596 C.3     1  LIG11       0.0378
     11 C          -6.6272    0.3428   -0.9685 C.3     1  LIG11       0.0143
     12 C          -4.6944    0.2705   -2.3931 C.3     1  LIG11      -0.0230
     13 C          -6.1222    0.2453   -4.4669 C.ar    1  LIG11      -0.0347
     14 C          -7.8352    1.1240   -0.4631 C.ar    1  LIG11       0.0011
     15 C          -4.6068    1.7504   -0.3366 C.3     1  LIG11       0.0468
     16 C          -6.8019   -1.9249   -1.4229 C.2     1  LIG11       0.0513
     17 C          -5.3771   -0.1192   -5.6097 C.ar    1  LIG11      -0.0125
     18 C          -3.6728    2.8724   -0.8149 C.2     1  LIG11       0.2608
     19 C          -7.1162    1.2415   -4.5926 C.ar    1  LIG11      -0.0544
     20 C          -8.8412    0.4045    0.2108 C.ar    1  LIG11      -0.0498
     21 C          -7.9889    2.5134   -0.5624 C.ar    1  LIG11      -0.0498
     22 C          -5.6573    0.4965   -6.8099 C.ar    1  LIG11       0.1665
     23 C          -7.3722    1.8555   -5.8269 C.ar    1  LIG11      -0.0159
     24 C          -6.6283    1.4573   -6.9176 C.ar    1  LIG11       0.1662
     25 C          -9.9579    1.0388    0.7633 C.ar    1  LIG11      -0.0195
     26 C          -9.1035    3.1484    0.0038 C.ar    1  LIG11      -0.0195
     27 C          -1.9820    4.5922   -0.3074 C.3     1  LIG11       0.0148
     28 C          -2.9205    3.2208    1.5717 C.3     1  LIG11       0.0148
     29 C         -10.0953    2.4174    0.6603 C.ar    1  LIG11       0.1201
     30 C          -2.5887    5.8007   -1.0328 C.3     1  LIG11      -0.0374
     31 C          -3.8612    4.1153    2.3790 C.3     1  LIG11      -0.0374
     32 C          -5.7773    1.1163   -8.8743 C.3     1  LIG11       0.2332
     33 C          -3.5687    6.6025   -0.1800 C.3     1  LIG11      -0.0545
     34 C          -3.9191    3.7583    3.8651 C.3     1  LIG11      -0.0545
     35 C          -4.0724    7.8305   -0.9235 C.3     1  LIG11      -0.0652
     36 C          -4.5603    2.4070    4.1397 C.3     1  LIG11      -0.0652
     37 C         -12.2709    2.4300    1.6032 C.3     1  LIG11       0.0788
     38 H          -5.7894    1.9620   -2.0476 H       1  LIG11       0.2045
     39 H          -7.9309   -0.4830   -2.5762 H       1  LIG11       0.0427
     40 H          -5.4250   -1.4603   -3.4492 H       1  LIG11       0.0409
     41 H          -6.2273   -0.1631   -0.0773 H       1  LIG11       0.0911
     42 H          -4.0887   -0.4017   -1.7774 H       1  LIG11       0.0821
     43 H          -4.0394    0.8785   -3.0235 H       1  LIG11       0.0821
     44 H          -4.0298    0.9216    0.0837 H       1  LIG11       0.0913
     45 H          -5.2896    2.1606    0.4120 H       1  LIG11       0.0913
     46 H          -4.6086   -0.8854   -5.5688 H       1  LIG11       0.0658
     47 H          -7.7268    1.5392   -3.7432 H       1  LIG11       0.0622
     48 H          -8.7679   -0.6798    0.3214 H       1  LIG11       0.0623
     49 H          -7.2607    3.1443   -1.0610 H       1  LIG11       0.0623
     50 H          -8.1447    2.6094   -5.9314 H       1  LIG11       0.0655
     51 H         -10.6901    0.4195    1.2720 H       1  LIG11       0.0654
     52 H          -9.2052    4.2292   -0.0706 H       1  LIG11       0.0654
     53 H          -1.2720    4.0977   -0.9818 H       1  LIG11       0.0464
     54 H          -1.4069    4.9485    0.5552 H       1  LIG11       0.0464
     55 H          -1.8926    3.3022    1.9442 H       1  LIG11       0.0464
     56 H          -3.2032    2.1732    1.6914 H       1  LIG11       0.0464
     57 H          -3.0839    5.4920   -1.9589 H       1  LIG11       0.0280
     58 H          -1.7624    6.4568   -1.3358 H       1  LIG11       0.0280
     59 H          -4.8711    4.0841    1.9523 H       1  LIG11       0.0280
     60 H          -3.5224    5.1538    2.2976 H       1  LIG11       0.0280
     61 H          -6.2933    0.5071   -9.6261 H       1  LIG11       0.1166
     62 H          -5.0667    1.7756   -9.3851 H       1  LIG11       0.1166
     63 H          -3.0806    6.9235    0.7469 H       1  LIG11       0.0263
     64 H          -4.4274    5.9798    0.0928 H       1  LIG11       0.0263
     65 H          -4.5022    4.5294    4.3828 H       1  LIG11       0.0263
     66 H          -2.9113    3.7810    4.2956 H       1  LIG11       0.0263
     67 H          -3.2449    8.4988   -1.1828 H       1  LIG11       0.0230
     68 H          -4.7771    8.3889   -0.2997 H       1  LIG11       0.0230
     69 H          -4.5868    7.5462   -1.8471 H       1  LIG11       0.0230
     70 H          -5.5509    2.3401    3.6786 H       1  LIG11       0.0230
     71 H          -4.6779    2.2603    5.2182 H       1  LIG11       0.0230
     72 H          -3.9453    1.5859    3.7604 H       1  LIG11       0.0230
     73 H         -13.0430    3.1542    1.8801 H       1  LIG11       0.0660
     74 H         -12.0423    1.8324    2.4919 H       1  LIG11       0.0660
     75 H         -12.6738    1.8045    0.7992 H       1  LIG11       0.0660
@<TRIPOS>BOND
     1     1    16   ar
     2     2    16   ar
     3     3    22    1
     4     3    32    1
     5     4    18    2
     6     5    24    1
     7     5    32    1
     8     6    29    1
     9     6    37    1
    10     7    11    1
    11     7    12    1
    12     7    15    1
    13     8    18   am
    14     8    27    1
    15     8    28    1
    16     9    10    1
    17     9    11    1
    18     9    16    1
    19    10    12    1
    20    10    13    1
    21    11    14    1
    22    13    17   ar
    23    13    19   ar
    24    14    20   ar
    25    14    21   ar
    26    15    18    1
    27    17    22   ar
    28    19    23   ar
    29    20    25   ar
    30    21    26   ar
    31    22    24   ar
    32    23    24   ar
    33    25    29   ar
    34    26    29   ar
    35    27    30    1
    36    28    31    1
    37    30    33    1
    38    31    34    1
    39    33    35    1
    40    34    36    1
    41     7    38    1
    42     9    39    1
    43    10    40    1
    44    11    41    1
    45    12    42    1
    46    12    43    1
    47    15    44    1
    48    15    45    1
    49    17    46    1
    50    19    47    1
    51    20    48    1
    52    21    49    1
    53    23    50    1
    54    25    51    1
    55    26    52    1
    56    27    53    1
    57    27    54    1
    58    28    55    1
    59    28    56    1
    60    30    57    1
    61    30    58    1
    62    31    59    1
    63    31    60    1
    64    32    61    1
    65    32    62    1
    66    33    63    1
    67    33    64    1
    68    34    65    1
    69    34    66    1
    70    35    67    1
    71    35    68    1
    72    35    69    1
    73    36    70    1
    74    36    71    1
    75    36    72    1
    76    37    73    1
    77    37    74    1
    78    37    75    1
@<TRIPOS>MOLECULE
../1EDN/PCA3_17-21.pdb
 47 48 0 0 0
SMALL
GASTEIGER

@<TRIPOS>ATOM
      1  N         -4.2370    0.0490   -1.5930 N.3    17  LEU17      -0.1231
      2  CA        -5.5250   -0.5610   -1.9200 C.3    17  LEU17       0.1693
      3  CB        -5.7360   -1.8160   -1.1010 C.3    17  LEU17       0.0284
      4  CG        -6.9950   -2.5690   -1.5730 C.3    17  LEU17       0.0019
      5  CD1       -6.7530   -3.1800   -3.0080 C.3    17  LEU17       0.0001
      6  CD2       -7.2580   -3.7400   -0.6960 C.3    17  LEU17       0.0001
      7  C         -6.6810    0.4320   -1.9250 C.2    17  LEU17       0.2592
      8  O         -7.3270    0.6200   -2.9560 O.2    17  LEU17      -0.2718
      9  N         -6.9500    1.1080   -0.7900 N.am   18  ASP18      -0.1960
     10  CA        -8.0880    2.0070   -0.5710 C.3    18  ASP18       0.1840
     11  CB        -9.1090    1.3410    0.3760 C.3    18  ASP18       0.1450
     12  CG       -10.1470    2.2990    0.9520 C.2    18  ASP18       0.3671
     13  OD1      -11.0720    2.5310    0.1500 O.co2  18  ASP18      -0.2456
     14  OD2      -10.1960    2.6850    2.1610 O.co2  18  ASP18      -0.2456
     15  C         -7.6280    3.3500    0.0060 C.2    18  ASP18       0.2622
     16  O         -7.9950    4.4650   -0.3580 O.2    18  ASP18      -0.2715
     17  N         -6.8140    3.2050    1.0390 N.am   19  ILE19      -0.1963
     18  CA        -6.1800    4.3790    1.8160 C.3    19  ILE19       0.1727
     19  CB        -5.3140    3.8890    3.0670 C.3    19  ILE19       0.0290
     20  CG2       -4.6600    5.0630    3.8540 C.3    19  ILE19       0.0023
     21  CG1       -6.1440    2.9790    3.9890 C.3    19  ILE19       0.0022
     22  CD1       -5.5170    2.2940    5.2130 C.3    19  ILE19       0.0001
     23  C         -5.2670    5.2520    0.8640 C.2    19  ILE19       0.2616
     24  O         -5.3920    6.4650    0.9090 O.2    19  ILE19      -0.2715
     25  N         -4.4890    4.6060    0.0020 N.am   20  ILE20      -0.1963
     26  CA        -3.9690    5.2910   -1.1850 C.3    20  ILE20       0.1727
     27  CB        -2.4460    5.7340   -1.0120 C.3    20  ILE20       0.0290
     28  CG2       -2.3030    7.0110   -0.1100 C.3    20  ILE20       0.0023
     29  CG1       -1.4300    4.6170   -0.6100 C.3    20  ILE20       0.0022
     30  CD1        0.0800    4.9990   -0.7110 C.3    20  ILE20       0.0001
     31  C         -4.1660    4.3690   -2.4130 C.2    20  ILE20       0.2617
     32  O         -3.9200    3.1710   -2.5010 O.2    20  ILE20      -0.2715
     33  N         -4.6410    5.0460   -3.5090 N.am   21  TRP21      -0.1938
     34  CA        -4.8980    4.4430   -4.8120 C.3    21  TRP21       0.2021
     35  CB        -6.2680    3.7450   -4.8170 C.3    21  TRP21       0.0612
     36  CG        -6.5090    2.9660   -6.0890 C.ar   21  TRP21       0.0007
     37  CD1       -7.0550    3.4090   -7.2190 C.ar   21  TRP21       0.0946
     38  NE1       -7.1560    2.4190   -8.1260 N.ar   21  TRP21      -0.2442
     39  CE2       -6.6880    1.2600   -7.6470 C.ar   21  TRP21       0.0810
     40  CZ2       -6.5320   -0.1050   -8.0600 C.ar   21  TRP21       0.0191
     41  CH2       -5.9630   -1.0770   -7.2340 C.ar   21  TRP21       0.0015
     42  CZ3       -5.4330   -0.7150   -5.9030 C.ar   21  TRP21       0.0001
     43  CE3       -5.5290    0.6400   -5.5430 C.ar   21  TRP21       0.0012
     44  CD2       -6.2440    1.5830   -6.3190 C.ar   21  TRP21       0.0152
     45  C         -4.7460    5.5030   -5.9410 C.2    21  TRP21       0.3845
     46  O         -5.6740    6.3580   -6.0770 O.co2  21  TRP21      -0.2437
     47  OXT       -3.7150    5.4030   -6.6310 O.co2  21  TRP21      -0.2437
@<TRIPOS>BOND
     1    38    39   ar
     2    38    37   ar
     3    40    39   ar
     4    40    41   ar
     5    39    44   ar
     6    41    42   ar
     7    37    36   ar
     8    47    45   ar
     9    44    36   ar
    10    44    43   ar
    11    36    35    1
    12    46    45   ar
    13    45    34    1
    14    42    43   ar
    15    35    34    1
    16    34    33    1
    17    33    31   am
    18     5     4    1
    19     8     7    2
    20    32    31    2
    21    31    26    1
    22     7     2    1
    23     7     9   am
    24     2     1    1
    25     2     3    1
    26     4     3    1
    27     4     6    1
    28    26    27    1
    29    26    25    1
    30    27    29    1
    31    27    28    1
    32     9    10    1
    33    30    29    1
    34    10    15    1
    35    10    11    1
    36    16    15    2
    37    25    23   am
    38    15    17   am
    39    13    12   ar
    40    11    12    1
    41    23    24    2
    42    23    18    1
    43    12    14   ar
    44    17    18    1
    45    18    19    1
    46    19    20    1
    47    19    21    1
    48    21    22    1
