@<TRIPOS>MOLECULE
../1EDN/PCA3_17-21_NOBACKBONE.pdb
 26 23 0 0 0
SMALL
GASTEIGER

@<TRIPOS>ATOM
      1  CB        -5.7360   -1.8160   -1.1010 C.3    17  LEU17       0.0000
      2  CG        -6.9950   -2.5690   -1.5730 C.3    17  LEU17       0.0000
      3  CD1       -6.7530   -3.1800   -3.0080 C.3    17  LEU17       0.0000
      4  CD2       -7.2580   -3.7400   -0.6960 C.3    17  LEU17       0.0000
      5  CB        -9.1090    1.3410    0.3760 C.3    18  ASP18       0.1258
      6  CG       -10.1470    2.2990    0.9520 C.2    18  ASP18       0.3654
      7  OD1      -11.0720    2.5310    0.1500 O.co2  18  ASP18      -0.2456
      8  OD2      -10.1960    2.6850    2.1610 O.co2  18  ASP18      -0.2456
      9  CB        -5.3140    3.8890    3.0670 C.3    19  ILE19       0.0000
     10  CG2       -4.6600    5.0630    3.8540 C.3    19  ILE19       0.0000
     11  CG1       -6.1440    2.9790    3.9890 C.3    19  ILE19       0.0000
     12  CD1       -5.5170    2.2940    5.2130 C.3    19  ILE19       0.0000
     13  CB        -2.4460    5.7340   -1.0120 C.3    20  ILE20       0.0000
     14  CG2       -2.3030    7.0110   -0.1100 C.3    20  ILE20       0.0000
     15  CG1       -1.4300    4.6170   -0.6100 C.3    20  ILE20       0.0000
     16  CD1        0.0800    4.9990   -0.7110 C.3    20  ILE20       0.0000
     17  CB        -6.2680    3.7450   -4.8170 C.3    21  TRP21       0.0327
     18  CG        -6.5090    2.9660   -6.0890 C.ar   21  TRP21      -0.0013
     19  CD1       -7.0550    3.4090   -7.2190 C.ar   21  TRP21       0.0946
     20  NE1       -7.1560    2.4190   -8.1260 N.ar   21  TRP21      -0.2442
     21  CE2       -6.6880    1.2600   -7.6470 C.ar   21  TRP21       0.0810
     22  CZ2       -6.5320   -0.1050   -8.0600 C.ar   21  TRP21       0.0191
     23  CH2       -5.9630   -1.0770   -7.2340 C.ar   21  TRP21       0.0015
     24  CZ3       -5.4330   -0.7150   -5.9030 C.ar   21  TRP21       0.0001
     25  CE3       -5.5290    0.6400   -5.5430 C.ar   21  TRP21       0.0012
     26  CD2       -6.2440    1.5830   -6.3190 C.ar   21  TRP21       0.0152
@<TRIPOS>BOND
     1    20    21   ar
     2    20    19   ar
     3    22    21   ar
     4    22    23   ar
     5    21    26   ar
     6    23    24   ar
     7    19    18   ar
     8    26    18   ar
     9    26    25   ar
    10    18    17    1
    11    24    25   ar
    12     3     2    1
    13     2     1    1
    14     2     4    1
    15    13    15    1
    16    13    14    1
    17    16    15    1
    18     7     6   ar
    19     5     6    1
    20     6     8   ar
    21     9    10    1
    22     9    11    1
    23    11    12    1
@<TRIPOS>MOLECULE
9843631
 45 48 0 0 0
SMALL
GASTEIGER

@<TRIPOS>ATOM
      1 S          -5.7395    5.4861   -0.0730 S.O2    1  LIG11       0.0752
      2 O          -4.4131    4.1677    2.4356 O.2     1  LIG11      -0.3377
      3 O          -6.0705    6.4391    0.9724 O.2     1  LIG11      -0.1499
      4 O          -6.4778    5.5301   -1.3200 O.2     1  LIG11      -0.1499
      5 O          -6.7926    1.3541   -5.7204 O.2     1  LIG11      -0.4436
      6 N          -5.9627    3.9301    0.5484 N.pl3   1  LIG11      -0.1831
      7 N          -4.3643    3.8597    3.7783 N.ar    1  LIG11      -0.0810
      8 N          -6.1192    2.8717   -7.2518 N.ar    1  LIG11      -0.2175
      9 C          -3.9939    5.5963   -0.4120 C.ar    1  LIG11       0.1162
     10 C          -3.4083    5.1335   -1.6056 C.ar    1  LIG11       0.0087
     11 C          -4.1188    4.4491   -2.6948 C.ar    1  LIG11      -0.0160
     12 C          -3.2170    6.2842    0.5428 C.ar    1  LIG11      -0.0345
     13 C          -5.6014    3.7714    1.9085 C.ar    1  LIG11       0.2399
     14 C          -2.0240    5.3680   -1.7811 C.ar    1  LIG11      -0.0521
     15 C          -6.3665    3.1937    2.8995 C.ar    1  LIG11       0.0350
     16 C          -4.2740    5.0821   -3.9386 C.ar    1  LIG11      -0.0533
     17 C          -4.6051    3.1428   -2.5530 C.ar    1  LIG11      -0.0533
     18 C          -1.8571    6.4971    0.3405 C.ar    1  LIG11      -0.0599
     19 C          -1.2588    6.0387   -0.8241 C.ar    1  LIG11      -0.0611
     20 C          -5.4141    3.1387   -4.8555 C.ar    1  LIG11       0.0369
     21 C          -5.5421    3.2950    4.0593 C.ar    1  LIG11       0.0854
     22 C          -4.9066    4.4351   -5.0040 C.ar    1  LIG11      -0.0489
     23 C          -5.2549    2.4995   -3.6173 C.ar    1  LIG11      -0.0489
     24 C          -7.7503    2.6716    2.8390 C.3     1  LIG11      -0.0330
     25 C          -5.8554    2.8993    5.4536 C.3     1  LIG11      -0.0188
     26 C          -6.0797    2.4970   -5.9856 C.ar    1  LIG11       0.2271
     27 C          -7.3184    1.0022   -6.9275 C.ar    1  LIG11       0.1125
     28 C          -6.9017    1.9202   -7.8559 C.ar    1  LIG11       0.0663
     29 H          -6.8252    3.5207    0.2036 H       1  LIG11       0.1768
     30 H          -3.6706    6.6629    1.4594 H       1  LIG11       0.0637
     31 H          -1.5294    5.0243   -2.6893 H       1  LIG11       0.0624
     32 H          -3.9021    6.0949   -4.0878 H       1  LIG11       0.0624
     33 H          -4.4754    2.6075   -1.6152 H       1  LIG11       0.0624
     34 H          -1.2713    7.0250    1.0891 H       1  LIG11       0.0618
     35 H          -0.1992    6.2068   -0.9956 H       1  LIG11       0.0618
     36 H          -5.0096    4.9554   -5.9557 H       1  LIG11       0.0625
     37 H          -5.6254    1.4868   -3.4715 H       1  LIG11       0.0625
     38 H          -8.1077    2.5719    1.8105 H       1  LIG11       0.0280
     39 H          -8.4288    3.3506    3.3665 H       1  LIG11       0.0280
     40 H          -7.8147    1.6878    3.3130 H       1  LIG11       0.0280
     41 H          -4.9552    2.8729    6.0760 H       1  LIG11       0.0294
     42 H          -6.3124    1.9056    5.4828 H       1  LIG11       0.0294
     43 H          -6.5546    3.6146    5.8985 H       1  LIG11       0.0294
     44 H          -7.9350    0.1174   -6.9472 H       1  LIG11       0.1046
     45 H          -7.1222    1.9523   -8.9133 H       1  LIG11       0.0862
@<TRIPOS>BOND
     1     1     3    2
     2     1     4    2
     3     1     6    1
     4     1     9    1
     5     2     7   ar
     6     2    13   ar
     7     5    26   ar
     8     5    27   ar
     9     6    13    1
    10     7    21   ar
    11     8    26   ar
    12     8    28   ar
    13     9    10   ar
    14     9    12   ar
    15    10    11    1
    16    10    14   ar
    17    11    16   ar
    18    11    17   ar
    19    12    18   ar
    20    13    15   ar
    21    14    19   ar
    22    15    21   ar
    23    15    24    1
    24    16    22   ar
    25    17    23   ar
    26    18    19   ar
    27    20    22   ar
    28    20    23   ar
    29    20    26    1
    30    21    25    1
    31    27    28   ar
    32     6    29    1
    33    12    30    1
    34    14    31    1
    35    16    32    1
    36    17    33    1
    37    18    34    1
    38    19    35    1
    39    22    36    1
    40    23    37    1
    41    24    38    1
    42    24    39    1
    43    24    40    1
    44    25    41    1
    45    25    42    1
    46    25    43    1
    47    27    44    1
    48    28    45    1
@<TRIPOS>MOLECULE
../1EDN/PCA3_17-21.pdb
 47 48 0 0 0
SMALL
GASTEIGER

@<TRIPOS>ATOM
      1  N         -4.2370    0.0490   -1.5930 N.3    17  LEU17      -0.1231
      2  CA        -5.5250   -0.5610   -1.9200 C.3    17  LEU17       0.1693
      3  CB        -5.7360   -1.8160   -1.1010 C.3    17  LEU17       0.0284
      4  CG        -6.9950   -2.5690   -1.5730 C.3    17  LEU17       0.0019
      5  CD1       -6.7530   -3.1800   -3.0080 C.3    17  LEU17       0.0001
      6  CD2       -7.2580   -3.7400   -0.6960 C.3    17  LEU17       0.0001
      7  C         -6.6810    0.4320   -1.9250 C.2    17  LEU17       0.2592
      8  O         -7.3270    0.6200   -2.9560 O.2    17  LEU17      -0.2718
      9  N         -6.9500    1.1080   -0.7900 N.am   18  ASP18      -0.1960
     10  CA        -8.0880    2.0070   -0.5710 C.3    18  ASP18       0.1840
     11  CB        -9.1090    1.3410    0.3760 C.3    18  ASP18       0.1450
     12  CG       -10.1470    2.2990    0.9520 C.2    18  ASP18       0.3671
     13  OD1      -11.0720    2.5310    0.1500 O.co2  18  ASP18      -0.2456
     14  OD2      -10.1960    2.6850    2.1610 O.co2  18  ASP18      -0.2456
     15  C         -7.6280    3.3500    0.0060 C.2    18  ASP18       0.2622
     16  O         -7.9950    4.4650   -0.3580 O.2    18  ASP18      -0.2715
     17  N         -6.8140    3.2050    1.0390 N.am   19  ILE19      -0.1963
     18  CA        -6.1800    4.3790    1.8160 C.3    19  ILE19       0.1727
     19  CB        -5.3140    3.8890    3.0670 C.3    19  ILE19       0.0290
     20  CG2       -4.6600    5.0630    3.8540 C.3    19  ILE19       0.0023
     21  CG1       -6.1440    2.9790    3.9890 C.3    19  ILE19       0.0022
     22  CD1       -5.5170    2.2940    5.2130 C.3    19  ILE19       0.0001
     23  C         -5.2670    5.2520    0.8640 C.2    19  ILE19       0.2616
     24  O         -5.3920    6.4650    0.9090 O.2    19  ILE19      -0.2715
     25  N         -4.4890    4.6060    0.0020 N.am   20  ILE20      -0.1963
     26  CA        -3.9690    5.2910   -1.1850 C.3    20  ILE20       0.1727
     27  CB        -2.4460    5.7340   -1.0120 C.3    20  ILE20       0.0290
     28  CG2       -2.3030    7.0110   -0.1100 C.3    20  ILE20       0.0023
     29  CG1       -1.4300    4.6170   -0.6100 C.3    20  ILE20       0.0022
     30  CD1        0.0800    4.9990   -0.7110 C.3    20  ILE20       0.0001
     31  C         -4.1660    4.3690   -2.4130 C.2    20  ILE20       0.2617
     32  O         -3.9200    3.1710   -2.5010 O.2    20  ILE20      -0.2715
     33  N         -4.6410    5.0460   -3.5090 N.am   21  TRP21      -0.1938
     34  CA        -4.8980    4.4430   -4.8120 C.3    21  TRP21       0.2021
     35  CB        -6.2680    3.7450   -4.8170 C.3    21  TRP21       0.0612
     36  CG        -6.5090    2.9660   -6.0890 C.ar   21  TRP21       0.0007
     37  CD1       -7.0550    3.4090   -7.2190 C.ar   21  TRP21       0.0946
     38  NE1       -7.1560    2.4190   -8.1260 N.ar   21  TRP21      -0.2442
     39  CE2       -6.6880    1.2600   -7.6470 C.ar   21  TRP21       0.0810
     40  CZ2       -6.5320   -0.1050   -8.0600 C.ar   21  TRP21       0.0191
     41  CH2       -5.9630   -1.0770   -7.2340 C.ar   21  TRP21       0.0015
     42  CZ3       -5.4330   -0.7150   -5.9030 C.ar   21  TRP21       0.0001
     43  CE3       -5.5290    0.6400   -5.5430 C.ar   21  TRP21       0.0012
     44  CD2       -6.2440    1.5830   -6.3190 C.ar   21  TRP21       0.0152
     45  C         -4.7460    5.5030   -5.9410 C.2    21  TRP21       0.3845
     46  O         -5.6740    6.3580   -6.0770 O.co2  21  TRP21      -0.2437
     47  OXT       -3.7150    5.4030   -6.6310 O.co2  21  TRP21      -0.2437
@<TRIPOS>BOND
     1    38    39   ar
     2    38    37   ar
     3    40    39   ar
     4    40    41   ar
     5    39    44   ar
     6    41    42   ar
     7    37    36   ar
     8    47    45   ar
     9    44    36   ar
    10    44    43   ar
    11    36    35    1
    12    46    45   ar
    13    45    34    1
    14    42    43   ar
    15    35    34    1
    16    34    33    1
    17    33    31   am
    18     5     4    1
    19     8     7    2
    20    32    31    2
    21    31    26    1
    22     7     2    1
    23     7     9   am
    24     2     1    1
    25     2     3    1
    26     4     3    1
    27     4     6    1
    28    26    27    1
    29    26    25    1
    30    27    29    1
    31    27    28    1
    32     9    10    1
    33    30    29    1
    34    10    15    1
    35    10    11    1
    36    16    15    2
    37    25    23   am
    38    15    17   am
    39    13    12   ar
    40    11    12    1
    41    23    24    2
    42    23    18    1
    43    12    14   ar
    44    17    18    1
    45    18    19    1
    46    19    20    1
    47    19    21    1
    48    21    22    1
