@<TRIPOS>MOLECULE
../1EDN/PCA3_17-21_NOBACKBONE.pdb
 26 23 0 0 0
SMALL
GASTEIGER

@<TRIPOS>ATOM
      1  CB        -5.7360   -1.8160   -1.1010 C.3    17  LEU17       0.0000
      2  CG        -6.9950   -2.5690   -1.5730 C.3    17  LEU17       0.0000
      3  CD1       -6.7530   -3.1800   -3.0080 C.3    17  LEU17       0.0000
      4  CD2       -7.2580   -3.7400   -0.6960 C.3    17  LEU17       0.0000
      5  CB        -9.1090    1.3410    0.3760 C.3    18  ASP18       0.1258
      6  CG       -10.1470    2.2990    0.9520 C.2    18  ASP18       0.3654
      7  OD1      -11.0720    2.5310    0.1500 O.co2  18  ASP18      -0.2456
      8  OD2      -10.1960    2.6850    2.1610 O.co2  18  ASP18      -0.2456
      9  CB        -5.3140    3.8890    3.0670 C.3    19  ILE19       0.0000
     10  CG2       -4.6600    5.0630    3.8540 C.3    19  ILE19       0.0000
     11  CG1       -6.1440    2.9790    3.9890 C.3    19  ILE19       0.0000
     12  CD1       -5.5170    2.2940    5.2130 C.3    19  ILE19       0.0000
     13  CB        -2.4460    5.7340   -1.0120 C.3    20  ILE20       0.0000
     14  CG2       -2.3030    7.0110   -0.1100 C.3    20  ILE20       0.0000
     15  CG1       -1.4300    4.6170   -0.6100 C.3    20  ILE20       0.0000
     16  CD1        0.0800    4.9990   -0.7110 C.3    20  ILE20       0.0000
     17  CB        -6.2680    3.7450   -4.8170 C.3    21  TRP21       0.0327
     18  CG        -6.5090    2.9660   -6.0890 C.ar   21  TRP21      -0.0013
     19  CD1       -7.0550    3.4090   -7.2190 C.ar   21  TRP21       0.0946
     20  NE1       -7.1560    2.4190   -8.1260 N.ar   21  TRP21      -0.2442
     21  CE2       -6.6880    1.2600   -7.6470 C.ar   21  TRP21       0.0810
     22  CZ2       -6.5320   -0.1050   -8.0600 C.ar   21  TRP21       0.0191
     23  CH2       -5.9630   -1.0770   -7.2340 C.ar   21  TRP21       0.0015
     24  CZ3       -5.4330   -0.7150   -5.9030 C.ar   21  TRP21       0.0001
     25  CE3       -5.5290    0.6400   -5.5430 C.ar   21  TRP21       0.0012
     26  CD2       -6.2440    1.5830   -6.3190 C.ar   21  TRP21       0.0152
@<TRIPOS>BOND
     1    20    21   ar
     2    20    19   ar
     3    22    21   ar
     4    22    23   ar
     5    21    26   ar
     6    23    24   ar
     7    19    18   ar
     8    26    18   ar
     9    26    25   ar
    10    18    17    1
    11    24    25   ar
    12     3     2    1
    13     2     1    1
    14     2     4    1
    15    13    15    1
    16    13    14    1
    17    16    15    1
    18     7     6   ar
    19     5     6    1
    20     6     8   ar
    21     9    10    1
    22     9    11    1
    23    11    12    1
@<TRIPOS>MOLECULE
2-[[2-[2-butyl-4-[(Z)-2-carboxy-3-(6-methoxy-1,3-benzodioxol-5-yl)prop-1-enyl]pyrazol-3-yl]-5-methoxyphenoxy]methyl]benzoic acid
 77 81 0 0 0
SMALL
GASTEIGER

@<TRIPOS>ATOM
      1 O          -8.2718    2.9123    1.0128 O.3     1  LIG11      -0.4866
      2 O          -6.1285    4.6620   -8.3262 O.3     1  LIG11      -0.4526
      3 O          -7.1727    2.7348   -9.3313 O.3     1  LIG11      -0.4525
      4 O          -6.5785    0.1315   -5.2507 O.3     1  LIG11      -0.4947
      5 O         -12.9430    1.9269    1.3921 O.3     1  LIG11      -0.4950
      6 O          -5.5380    5.2707   -3.3521 O.co2   1  LIG11      -0.5449
      7 O          -7.8015    4.9730   -3.2727 O.co2   1  LIG11      -0.5449
      8 O          -6.2349    1.6540    4.4485 O.co2   1  LIG11      -0.5446
      9 O          -4.1406    2.3662    4.8814 O.co2   1  LIG11      -0.5446
     10 N          -7.2620   -0.7084   -0.4701 N.ar    1  LIG11      -0.2630
     11 N          -5.9607   -0.7654   -0.8076 N.ar    1  LIG11      -0.1785
     12 C          -7.8292    0.5494   -0.6446 C.ar    1  LIG11       0.0795
     13 C          -7.9456   -1.9266   -0.0772 C.3     1  LIG11       0.0422
     14 C          -7.1246   -3.2141    0.1035 C.3     1  LIG11      -0.0336
     15 C          -6.8658    1.2569   -1.3593 C.ar    1  LIG11       0.0207
     16 C          -9.1456    0.9478   -0.1083 C.ar    1  LIG11       0.0425
     17 C          -6.3145   -3.7298   -1.0961 C.3     1  LIG11      -0.0542
     18 C          -5.7216    0.4367   -1.3263 C.ar    1  LIG11       0.0571
     19 C          -6.9803    2.5749   -1.9024 C.2     1  LIG11      -0.0459
     20 C          -5.4435    2.4095   -3.9695 C.3     1  LIG11       0.0029
     21 C          -9.2935    2.0336    0.7765 C.ar    1  LIG11       0.1336
     22 C          -6.3732    3.0855   -2.9961 C.2     1  LIG11      -0.0200
     23 C          -5.9135    2.4053   -5.4194 C.ar    1  LIG11       0.0023
     24 C         -10.3023    0.2284   -0.4484 C.ar    1  LIG11      -0.0456
     25 C          -7.0128   -3.6412   -2.4432 C.3     1  LIG11      -0.0652
     26 C         -10.5476    2.3909    1.2912 C.ar    1  LIG11       0.0224
     27 C          -6.4963    1.2597   -6.0274 C.ar    1  LIG11       0.1273
     28 C          -5.7504    3.5851   -6.1749 C.ar    1  LIG11      -0.0092
     29 C         -11.5498    0.5613    0.0929 C.ar    1  LIG11      -0.0191
     30 C          -6.1997    3.6058   -7.4732 C.ar    1  LIG11       0.1667
     31 C         -11.6773    1.6560    0.9435 C.ar    1  LIG11       0.1236
     32 C          -6.7879    2.5061   -8.0441 C.ar    1  LIG11       0.1697
     33 C          -6.9452    1.3210   -7.3560 C.ar    1  LIG11       0.0258
     34 C          -6.5958    4.5904   -3.2176 C.2     1  LIG11       0.0680
     35 C          -7.4758    2.6100    2.1735 C.3     1  LIG11       0.1153
     36 C          -6.8303    4.1311   -9.4611 C.3     1  LIG11       0.2332
     37 C          -6.5252    3.7764    2.4453 C.ar    1  LIG11      -0.0016
     38 C          -5.4944    3.6879    3.4156 C.ar    1  LIG11       0.0037
     39 C          -6.6584    4.9777    1.7080 C.ar    1  LIG11      -0.0547
     40 C          -6.9207   -1.0843   -5.8976 C.3     1  LIG11       0.0788
     41 C          -4.6259    4.7939    3.5744 C.ar    1  LIG11      -0.0525
     42 C          -5.7969    6.0590    1.8986 C.ar    1  LIG11      -0.0614
     43 C         -13.2586    3.3178    1.3821 C.3     1  LIG11       0.0788
     44 C          -4.7740    5.9649    2.8294 C.ar    1  LIG11      -0.0611
     45 C          -5.2717    2.4678    4.3011 C.2     1  LIG11       0.0720
     46 H          -8.7070   -2.1136   -0.8417 H       1  LIG11       0.0509
     47 H          -8.4588   -1.7095    0.8667 H       1  LIG11       0.0509
     48 H          -7.8319   -4.0054    0.3868 H       1  LIG11       0.0283
     49 H          -6.4453   -3.0963    0.9564 H       1  LIG11       0.0283
     50 H          -6.0537   -4.7785   -0.9056 H       1  LIG11       0.0263
     51 H          -5.3570   -3.2010   -1.1562 H       1  LIG11       0.0263
     52 H          -4.7209    0.6651   -1.6645 H       1  LIG11       0.0854
     53 H          -7.6359    3.2538   -1.3572 H       1  LIG11       0.0628
     54 H          -5.2393    1.3763   -3.6839 H       1  LIG11       0.0363
     55 H          -4.4576    2.8917   -3.9258 H       1  LIG11       0.0363
     56 H         -10.2527   -0.5849   -1.1650 H       1  LIG11       0.0626
     57 H          -7.9647   -4.1796   -2.4336 H       1  LIG11       0.0230
     58 H          -6.3796   -4.0836   -3.2201 H       1  LIG11       0.0230
     59 H          -7.2020   -2.6037   -2.7332 H       1  LIG11       0.0230
     60 H         -10.6076    3.2532    1.9466 H       1  LIG11       0.0691
     61 H          -5.3014    4.4721   -5.7353 H       1  LIG11       0.0659
     62 H         -12.4294   -0.0122   -0.1825 H       1  LIG11       0.0654
     63 H          -7.4172    0.4864   -7.8545 H       1  LIG11       0.0692
     64 H          -6.8928    1.7065    1.9651 H       1  LIG11       0.0748
     65 H          -8.1348    2.4742    3.0357 H       1  LIG11       0.0748
     66 H          -6.1991    4.2527  -10.3484 H       1  LIG11       0.1166
     67 H          -7.7522    4.7068   -9.6075 H       1  LIG11       0.1166
     68 H          -7.4311    5.0781    0.9468 H       1  LIG11       0.0622
     69 H          -6.8190   -1.8946   -5.1697 H       1  LIG11       0.0660
     70 H          -6.2390   -1.3016   -6.7274 H       1  LIG11       0.0660
     71 H          -7.9616   -1.0711   -6.2364 H       1  LIG11       0.0660
     72 H          -3.8146    4.7248    4.2976 H       1  LIG11       0.0624
     73 H          -5.9191    6.9547    1.2968 H       1  LIG11       0.0618
     74 H         -14.3421    3.4118    1.5054 H       1  LIG11       0.0660
     75 H         -12.9912    3.7835    0.4267 H       1  LIG11       0.0660
     76 H         -12.7840    3.8384    2.2193 H       1  LIG11       0.0660
     77 H          -4.0846    6.7902    2.9706 H       1  LIG11       0.0618
@<TRIPOS>BOND
     1     1    35    1
     2     1    21    1
     3     2    36    1
     4     2    30    1
     5     3    32    1
     6     3    36    1
     7     4    27    1
     8     4    40    1
     9     5    31    1
    10     5    43    1
    11     6    34   ar
    12     7    34   ar
    13     8    45   ar
    14     9    45   ar
    15    10    11   ar
    16    10    12   ar
    17    10    13    1
    18    11    18   ar
    19    12    15   ar
    20    13    14    1
    21    14    17    1
    22    15    18   ar
    23    15    19    1
    24    16    24   ar
    25    16    21   ar
    26    16    12    1
    27    17    25    1
    28    19    22    2
    29    20    22    1
    30    20    23    1
    31    21    26   ar
    32    22    34    1
    33    23    28   ar
    34    23    27   ar
    35    24    29   ar
    36    26    31   ar
    37    27    33   ar
    38    28    30   ar
    39    29    31   ar
    40    30    32   ar
    41    32    33   ar
    42    35    37    1
    43    37    39   ar
    44    37    38   ar
    45    38    41   ar
    46    38    45    1
    47    39    42   ar
    48    41    44   ar
    49    42    44   ar
    50    13    46    1
    51    13    47    1
    52    14    48    1
    53    14    49    1
    54    17    50    1
    55    17    51    1
    56    18    52    1
    57    19    53    1
    58    20    54    1
    59    20    55    1
    60    24    56    1
    61    25    57    1
    62    25    58    1
    63    25    59    1
    64    26    60    1
    65    28    61    1
    66    29    62    1
    67    33    63    1
    68    35    64    1
    69    35    65    1
    70    36    66    1
    71    36    67    1
    72    39    68    1
    73    40    69    1
    74    40    70    1
    75    40    71    1
    76    41    72    1
    77    42    73    1
    78    43    74    1
    79    43    75    1
    80    43    76    1
    81    44    77    1
@<TRIPOS>MOLECULE
../1EDN/PCA3_17-21.pdb
 47 48 0 0 0
SMALL
GASTEIGER

@<TRIPOS>ATOM
      1  N         -4.2370    0.0490   -1.5930 N.3    17  LEU17      -0.1231
      2  CA        -5.5250   -0.5610   -1.9200 C.3    17  LEU17       0.1693
      3  CB        -5.7360   -1.8160   -1.1010 C.3    17  LEU17       0.0284
      4  CG        -6.9950   -2.5690   -1.5730 C.3    17  LEU17       0.0019
      5  CD1       -6.7530   -3.1800   -3.0080 C.3    17  LEU17       0.0001
      6  CD2       -7.2580   -3.7400   -0.6960 C.3    17  LEU17       0.0001
      7  C         -6.6810    0.4320   -1.9250 C.2    17  LEU17       0.2592
      8  O         -7.3270    0.6200   -2.9560 O.2    17  LEU17      -0.2718
      9  N         -6.9500    1.1080   -0.7900 N.am   18  ASP18      -0.1960
     10  CA        -8.0880    2.0070   -0.5710 C.3    18  ASP18       0.1840
     11  CB        -9.1090    1.3410    0.3760 C.3    18  ASP18       0.1450
     12  CG       -10.1470    2.2990    0.9520 C.2    18  ASP18       0.3671
     13  OD1      -11.0720    2.5310    0.1500 O.co2  18  ASP18      -0.2456
     14  OD2      -10.1960    2.6850    2.1610 O.co2  18  ASP18      -0.2456
     15  C         -7.6280    3.3500    0.0060 C.2    18  ASP18       0.2622
     16  O         -7.9950    4.4650   -0.3580 O.2    18  ASP18      -0.2715
     17  N         -6.8140    3.2050    1.0390 N.am   19  ILE19      -0.1963
     18  CA        -6.1800    4.3790    1.8160 C.3    19  ILE19       0.1727
     19  CB        -5.3140    3.8890    3.0670 C.3    19  ILE19       0.0290
     20  CG2       -4.6600    5.0630    3.8540 C.3    19  ILE19       0.0023
     21  CG1       -6.1440    2.9790    3.9890 C.3    19  ILE19       0.0022
     22  CD1       -5.5170    2.2940    5.2130 C.3    19  ILE19       0.0001
     23  C         -5.2670    5.2520    0.8640 C.2    19  ILE19       0.2616
     24  O         -5.3920    6.4650    0.9090 O.2    19  ILE19      -0.2715
     25  N         -4.4890    4.6060    0.0020 N.am   20  ILE20      -0.1963
     26  CA        -3.9690    5.2910   -1.1850 C.3    20  ILE20       0.1727
     27  CB        -2.4460    5.7340   -1.0120 C.3    20  ILE20       0.0290
     28  CG2       -2.3030    7.0110   -0.1100 C.3    20  ILE20       0.0023
     29  CG1       -1.4300    4.6170   -0.6100 C.3    20  ILE20       0.0022
     30  CD1        0.0800    4.9990   -0.7110 C.3    20  ILE20       0.0001
     31  C         -4.1660    4.3690   -2.4130 C.2    20  ILE20       0.2617
     32  O         -3.9200    3.1710   -2.5010 O.2    20  ILE20      -0.2715
     33  N         -4.6410    5.0460   -3.5090 N.am   21  TRP21      -0.1938
     34  CA        -4.8980    4.4430   -4.8120 C.3    21  TRP21       0.2021
     35  CB        -6.2680    3.7450   -4.8170 C.3    21  TRP21       0.0612
     36  CG        -6.5090    2.9660   -6.0890 C.ar   21  TRP21       0.0007
     37  CD1       -7.0550    3.4090   -7.2190 C.ar   21  TRP21       0.0946
     38  NE1       -7.1560    2.4190   -8.1260 N.ar   21  TRP21      -0.2442
     39  CE2       -6.6880    1.2600   -7.6470 C.ar   21  TRP21       0.0810
     40  CZ2       -6.5320   -0.1050   -8.0600 C.ar   21  TRP21       0.0191
     41  CH2       -5.9630   -1.0770   -7.2340 C.ar   21  TRP21       0.0015
     42  CZ3       -5.4330   -0.7150   -5.9030 C.ar   21  TRP21       0.0001
     43  CE3       -5.5290    0.6400   -5.5430 C.ar   21  TRP21       0.0012
     44  CD2       -6.2440    1.5830   -6.3190 C.ar   21  TRP21       0.0152
     45  C         -4.7460    5.5030   -5.9410 C.2    21  TRP21       0.3845
     46  O         -5.6740    6.3580   -6.0770 O.co2  21  TRP21      -0.2437
     47  OXT       -3.7150    5.4030   -6.6310 O.co2  21  TRP21      -0.2437
@<TRIPOS>BOND
     1    38    39   ar
     2    38    37   ar
     3    40    39   ar
     4    40    41   ar
     5    39    44   ar
     6    41    42   ar
     7    37    36   ar
     8    47    45   ar
     9    44    36   ar
    10    44    43   ar
    11    36    35    1
    12    46    45   ar
    13    45    34    1
    14    42    43   ar
    15    35    34    1
    16    34    33    1
    17    33    31   am
    18     5     4    1
    19     8     7    2
    20    32    31    2
    21    31    26    1
    22     7     2    1
    23     7     9   am
    24     2     1    1
    25     2     3    1
    26     4     3    1
    27     4     6    1
    28    26    27    1
    29    26    25    1
    30    27    29    1
    31    27    28    1
    32     9    10    1
    33    30    29    1
    34    10    15    1
    35    10    11    1
    36    16    15    2
    37    25    23   am
    38    15    17   am
    39    13    12   ar
    40    11    12    1
    41    23    24    2
    42    23    18    1
    43    12    14   ar
    44    17    18    1
    45    18    19    1
    46    19    20    1
    47    19    21    1
    48    21    22    1
