@<TRIPOS>MOLECULE
../1EDN/XRAY_17-21_NOBACKBONE.pdb
 26 23 0 0 0
SMALL
GASTEIGER

@<TRIPOS>ATOM
      1  CB         5.6570  -21.0170   -0.8850 C.3    17  LEU17       0.0000
      2  CG         5.4050  -22.5400   -0.8470 C.3    17  LEU17       0.0000
      3  CD1        6.1110  -23.2140    0.3150 C.3    17  LEU17       0.0000
      4  CD2        3.9240  -22.7940   -0.7690 C.3    17  LEU17       0.0000
      5  CB         3.8720  -17.2370    1.5730 C.3    18  ASP18       0.0476
      6  CG         2.4440  -17.7210    1.8880 C.2    18  ASP18       0.0507
      7  OD1        1.8320  -18.4410    1.0660 O.co2  18  ASP18      -0.5492
      8  OD2        1.9260  -17.3730    2.9700 O.co2  18  ASP18      -0.5492
      9  CB         7.9140  -14.3690   -1.8400 C.3    19  ILE19       0.0000
     10  CG1        8.8760  -14.8240   -0.7490 C.3    19  ILE19       0.0000
     11  CG2        8.2810  -12.9320   -2.2380 C.3    19  ILE19       0.0000
     12  CD1        9.3280  -13.7050    0.1860 C.3    19  ILE19       0.0000
     13  CB         5.8140  -13.8870   -5.9550 C.3    20  ILE20       0.0000
     14  CG1        5.9530  -12.3980   -5.6400 C.3    20  ILE20       0.0000
     15  CG2        5.1640  -14.0490   -7.3150 C.3    20  ILE20       0.0000
     16  CD1        6.8340  -11.6390   -6.6010 C.3    20  ILE20       0.0000
     17  CB         2.6690  -18.5180   -5.3120 C.3    21  TRP21       0.0327
     18  CG         1.5690  -17.9980   -4.3600 C.ar   21  TRP21      -0.0013
     19  CD1        0.7990  -18.7930   -3.5490 C.ar   21  TRP21       0.0946
     20  CD2        1.2480  -16.6350   -3.9890 C.ar   21  TRP21       0.0152
     21  CE2        0.3020  -16.7070   -2.9250 C.ar   21  TRP21       0.0810
     22  CE3        1.6680  -15.3700   -4.4360 C.ar   21  TRP21       0.0012
     23  NE1        0.0520  -18.0350   -2.6840 N.ar   21  TRP21      -0.2442
     24  CZ2       -0.2230  -15.5590   -2.2950 C.ar   21  TRP21       0.0191
     25  CZ3        1.1420  -14.2140   -3.8060 C.ar   21  TRP21       0.0001
     26  CH2        0.2070  -14.3240   -2.7450 C.ar   21  TRP21       0.0015
@<TRIPOS>BOND
     1    15    13    1
     2    16    14    1
     3    13    14    1
     4    17    18    1
     5    22    20   ar
     6    22    25   ar
     7    18    20   ar
     8    18    19   ar
     9    20    21   ar
    10    25    26   ar
    11    19    23   ar
    12    21    23   ar
    13    21    24   ar
    14    26    24   ar
    15    11     9    1
    16     9    10    1
    17     1     2    1
    18     2     4    1
    19     2     3    1
    20    10    12    1
    21     7     6   ar
    22     5     6    1
    23     6     8   ar
@<TRIPOS>MOLECULE
01178588C
 55 57 0 0 0
SMALL
GASTEIGER

@<TRIPOS>ATOM
      1 S           2.0870  -18.6041   -3.4814 S.O2    1  LIG11       0.0756
      2 C           0.6887  -17.6082   -3.0648 C.ar    1  LIG11       0.1344
      3 N           1.7403  -20.1156   -2.7820 N.pl3   1  LIG11      -0.1951
      4 O           3.2550  -18.0299   -2.8568 O.2     1  LIG11      -0.1499
      5 O           2.0058  -18.8842   -4.8999 O.2     1  LIG11      -0.1499
      6 C           0.6096  -16.2681   -3.4478 C.ar    1  LIG11       0.0975
      7 C          -0.3463  -18.1568   -2.2885 C.ar    1  LIG11      -0.0315
      8 C           2.7893  -20.6381   -1.9845 C.ar    1  LIG11       0.2006
      9 C           1.6063  -15.4784   -4.2047 C.ar    1  LIG11       0.0023
     10 N          -0.4700  -15.5072   -3.0801 N.ar    1  LIG11      -0.2530
     11 C          -1.4334  -17.3729   -1.9218 C.ar    1  LIG11      -0.0417
     12 C           3.1499  -20.1620   -0.7186 C.ar    1  LIG11       0.2574
     13 N           3.3986  -21.6817   -2.5829 N.ar    1  LIG11      -0.2325
     14 C           2.1070  -15.8541   -5.4592 C.ar    1  LIG11      -0.0523
     15 C           2.0182  -14.2275   -3.7057 C.ar    1  LIG11      -0.0523
     16 C          -1.4516  -16.0618   -2.3418 C.ar    1  LIG11       0.0284
     17 N           4.1562  -20.7286   -0.0061 N.ar    1  LIG11      -0.2137
     18 O           2.3891  -19.1603   -0.1478 O.3     1  LIG11      -0.4773
     19 C           4.4267  -22.2104   -1.8785 C.ar    1  LIG11       0.0510
     20 C           3.0212  -15.0477   -6.1544 C.ar    1  LIG11      -0.0579
     21 C           2.8996  -13.4029   -4.4136 C.ar    1  LIG11      -0.0579
     22 C           4.8062  -21.7515   -0.6174 C.ar    1  LIG11       0.0602
     23 C           3.0281  -18.5648    0.9759 C.3     1  LIG11       0.0805
     24 C           3.4262  -13.8118   -5.6397 C.ar    1  LIG11      -0.0465
     25 C           5.9610  -22.3781    0.0991 C.3     1  LIG11      -0.0208
     26 C           4.3673  -12.9159   -6.4244 C.3     1  LIG11      -0.0174
     27 C           5.8228  -12.8069   -5.9132 C.3     1  LIG11       0.0085
     28 C           6.6170  -11.9364   -6.9337 C.2     1  LIG11       0.0477
     29 C           5.9399  -12.0086   -4.6084 C.3     1  LIG11      -0.0544
     30 C           6.4768  -14.1834   -5.7473 C.3     1  LIG11      -0.0544
     31 O           5.9757  -10.9822   -7.4627 O.co2   1  LIG11      -0.5493
     32 O           7.8299  -12.2502   -7.1068 O.co2   1  LIG11      -0.5493
     33 H           1.6027  -20.7614   -3.5613 H       1  LIG11       0.1754
     34 H          -0.3173  -19.1866   -1.9457 H       1  LIG11       0.0638
     35 H          -2.2391  -17.7741   -1.3177 H       1  LIG11       0.0633
     36 H           1.7754  -16.7661   -5.9464 H       1  LIG11       0.0624
     37 H           1.6227  -13.8673   -2.7577 H       1  LIG11       0.0624
     38 H          -2.2705  -15.3955   -2.0873 H       1  LIG11       0.0830
     39 H           4.9496  -23.0286   -2.3641 H       1  LIG11       0.0848
     40 H           3.3994  -15.3830   -7.1181 H       1  LIG11       0.0620
     41 H           3.1604  -12.4294   -4.0062 H       1  LIG11       0.0620
     42 H           2.4158  -17.7165    1.2964 H       1  LIG11       0.0660
     43 H           4.0212  -18.1811    0.7165 H       1  LIG11       0.0660
     44 H           3.0852  -19.2674    1.8146 H       1  LIG11       0.0660
     45 H           6.0756  -21.9518    1.1007 H       1  LIG11       0.0293
     46 H           6.8879  -22.2038   -0.4561 H       1  LIG11       0.0293
     47 H           5.8033  -23.4560    0.2048 H       1  LIG11       0.0293
     48 H           3.8966  -11.9234   -6.4682 H       1  LIG11       0.0322
     49 H           4.3825  -13.2629   -7.4679 H       1  LIG11       0.0322
     50 H           5.5498  -12.5732   -3.7556 H       1  LIG11       0.0239
     51 H           5.3913  -11.0611   -4.6650 H       1  LIG11       0.0239
     52 H           6.9840  -11.7649   -4.3772 H       1  LIG11       0.0239
     53 H           5.9535  -14.7932   -5.0034 H       1  LIG11       0.0239
     54 H           7.5166  -14.1008   -5.4098 H       1  LIG11       0.0239
     55 H           6.4818  -14.7331   -6.6952 H       1  LIG11       0.0239
@<TRIPOS>BOND
     1     1     5    2
     2     1     4    2
     3     1     3    1
     4     1     2    1
     5     2     6   ar
     6     2     7   ar
     7     3     8    1
     8     6    10   ar
     9     6     9    1
    10     7    11   ar
    11     8    12   ar
    12     8    13   ar
    13     9    14   ar
    14     9    15   ar
    15    10    16   ar
    16    11    16   ar
    17    12    17   ar
    18    12    18    1
    19    13    19   ar
    20    14    20   ar
    21    15    21   ar
    22    17    22   ar
    23    18    23    1
    24    19    22   ar
    25    20    24   ar
    26    21    24   ar
    27    22    25    1
    28    24    26    1
    29    26    27    1
    30    27    30    1
    31    27    29    1
    32    27    28    1
    33    28    32   ar
    34    28    31   ar
    35     3    33    1
    36     7    34    1
    37    11    35    1
    38    14    36    1
    39    15    37    1
    40    16    38    1
    41    19    39    1
    42    20    40    1
    43    21    41    1
    44    23    42    1
    45    23    43    1
    46    23    44    1
    47    25    45    1
    48    25    46    1
    49    25    47    1
    50    26    48    1
    51    26    49    1
    52    29    50    1
    53    29    51    1
    54    29    52    1
    55    30    53    1
    56    30    54    1
    57    30    55    1
@<TRIPOS>MOLECULE
../1EDN/XRAY_17-21.pdb
 47 48 0 0 0
SMALL
GASTEIGER

@<TRIPOS>ATOM
      1  N          6.4500  -19.7300   -2.8460 N.3    17  LEU17      -0.1231
      2  CA         5.2640  -20.1680   -2.1160 C.3    17  LEU17       0.1693
      3  C          4.7010  -18.8060   -1.6720 C.2    17  LEU17       0.2592
      4  O          4.3760  -17.9800   -2.5270 O.2    17  LEU17      -0.2718
      5  CB         5.6570  -21.0170   -0.8850 C.3    17  LEU17       0.0284
      6  CG         5.4050  -22.5400   -0.8470 C.3    17  LEU17       0.0019
      7  CD1        6.1110  -23.2140    0.3150 C.3    17  LEU17       0.0001
      8  CD2        3.9240  -22.7940   -0.7690 C.3    17  LEU17       0.0001
      9  N          4.7270  -18.4910   -0.3800 N.am   18  ASP18      -0.1962
     10  CA         4.1720  -17.2010    0.0630 C.3    18  ASP18       0.1783
     11  C          4.7750  -15.8130   -0.3500 C.2    18  ASP18       0.2620
     12  O          4.1570  -14.7710   -0.0750 O.2    18  ASP18      -0.2715
     13  CB         3.8720  -17.2370    1.5730 C.3    18  ASP18       0.0728
     14  CG         2.4440  -17.7210    1.8880 C.2    18  ASP18       0.0526
     15  OD1        1.8320  -18.4410    1.0660 O.co2  18  ASP18      -0.5491
     16  OD2        1.9260  -17.3730    2.9700 O.co2  18  ASP18      -0.5491
     17  N          5.9570  -15.7420   -0.9630 N.am   19  ILE19      -0.1963
     18  CA         6.4450  -14.4030   -1.3510 C.3    19  ILE19       0.1727
     19  C          5.5760  -13.9960   -2.5290 C.2    19  ILE19       0.2616
     20  O          4.8370  -13.0080   -2.4770 O.2    19  ILE19      -0.2715
     21  CB         7.9140  -14.3690   -1.8400 C.3    19  ILE19       0.0290
     22  CG1        8.8760  -14.8240   -0.7490 C.3    19  ILE19       0.0022
     23  CG2        8.2810  -12.9320   -2.2380 C.3    19  ILE19       0.0023
     24  CD1        9.3280  -13.7050    0.1860 C.3    19  ILE19       0.0001
     25  N          5.7170  -14.7750   -3.5990 N.am   20  ILE20      -0.1963
     26  CA         4.9770  -14.6140   -4.8450 C.3    20  ILE20       0.1727
     27  C          4.7560  -16.0550   -5.2510 C.2    20  ILE20       0.2615
     28  O          5.5820  -16.9240   -4.9410 O.2    20  ILE20      -0.2715
     29  CB         5.8140  -13.8870   -5.9550 C.3    20  ILE20       0.0290
     30  CG1        5.9530  -12.3980   -5.6400 C.3    20  ILE20       0.0022
     31  CG2        5.1640  -14.0490   -7.3150 C.3    20  ILE20       0.0023
     32  CD1        6.8340  -11.6390   -6.6010 C.3    20  ILE20       0.0001
     33  N          3.6520  -16.3070   -5.9350 N.am   21  TRP21      -0.1988
     34  CA         3.3300  -17.6370   -6.4010 C.3    21  TRP21       0.1456
     35  C          2.5650  -17.6270   -7.7180 C.2    21  TRP21       0.1166
     36  O          1.8980  -18.6320   -8.0750 O.co2  21  TRP21      -0.3065
     37  CB         2.6690  -18.5180   -5.3120 C.3    21  TRP21       0.0562
     38  CG         1.5690  -17.9980   -4.3600 C.ar   21  TRP21       0.0005
     39  CD1        0.7990  -18.7930   -3.5490 C.ar   21  TRP21       0.0946
     40  CD2        1.2480  -16.6350   -3.9890 C.ar   21  TRP21       0.0152
     41  CE2        0.3020  -16.7070   -2.9250 C.ar   21  TRP21       0.0810
     42  CE3        1.6680  -15.3700   -4.4360 C.ar   21  TRP21       0.0012
     43  NE1        0.0520  -18.0350   -2.6840 N.ar   21  TRP21      -0.2442
     44  CZ2       -0.2230  -15.5590   -2.2950 C.ar   21  TRP21       0.0191
     45  CZ3        1.1420  -14.2140   -3.8060 C.ar   21  TRP21       0.0001
     46  CH2        0.2070  -14.3240   -2.7450 C.ar   21  TRP21       0.0015
     47  OXT        2.7400  -16.6140   -8.4280 O.co2  21  TRP21      -0.8460
@<TRIPOS>BOND
     1    47    35   ar
     2    36    35   ar
     3    35    34    1
     4    31    29    1
     5    32    30    1
     6    34    33    1
     7    34    37    1
     8    29    30    1
     9    29    26    1
    10    33    27   am
    11    37    38    1
    12    27    28    2
    13    27    26    1
    14    26    25    1
    15    42    40   ar
    16    42    45   ar
    17    38    40   ar
    18    38    39   ar
    19    40    41   ar
    20    45    46   ar
    21    25    19   am
    22    39    43   ar
    23    41    43   ar
    24    41    44   ar
    25     1     2    1
    26    46    44   ar
    27    19    20    2
    28    19    18    1
    29     4     3    2
    30    23    21    1
    31     2     3    1
    32     2     5    1
    33    21    18    1
    34    21    22    1
    35     3     9   am
    36    18    17    1
    37    17    11   am
    38     5     6    1
    39     6     8    1
    40     6     7    1
    41    22    24    1
    42     9    10    1
    43    11    12    2
    44    11    10    1
    45    10    13    1
    46    15    14   ar
    47    13    14    1
    48    14    16   ar
