@<TRIPOS>MOLECULE
../ET1/ET1_17-21_50CONFORMERS_NOBACKBONE.pdb
 26 23 0 0 0
SMALL
GASTEIGER

@<TRIPOS>ATOM
      1  CB        -5.9910   -1.7310   -0.5350 C.3    17  LEU17       0.0000
      2  CG        -7.3580   -2.4930   -0.5800 C.3    17  LEU17       0.0000
      3  CD1       -7.5600   -3.4620   -1.7150 C.3    17  LEU17       0.0000
      4  CD2       -7.4530   -3.3820    0.6830 C.3    17  LEU17       0.0000
      5  CB        -9.1650    0.9770    0.3400 C.3    18  ASP18       0.1258
      6  CG       -10.4650    1.6800    0.7040 C.2    18  ASP18       0.3654
      7  OD1      -11.3360    1.8120   -0.1900 O.co2  18  ASP18      -0.2456
      8  OD2      -10.6500    2.1090    1.8620 O.co2  18  ASP18      -0.2456
      9  CB        -6.3180    4.5590    2.8920 C.3    19  ILE19       0.0000
     10  CG2       -4.8670    4.0770    3.0310 C.3    19  ILE19       0.0000
     11  CG1       -6.5010    5.8200    3.7530 C.3    19  ILE19       0.0000
     12  CD1       -6.2860    5.7290    5.2240 C.3    19  ILE19       0.0000
     13  CB        -2.8750    5.6400   -0.9260 C.3    20  ILE20       0.0000
     14  CG2       -2.9020    6.8270    0.0290 C.3    20  ILE20       0.0000
     15  CG1       -2.0780    4.4810   -0.2880 C.3    20  ILE20       0.0000
     16  CD1       -0.5920    4.8190   -0.0850 C.3    20  ILE20       0.0000
     17  CB        -5.7850    3.6920   -5.1280 C.3    21  TRP21       0.0066
     18  CG        -6.1880    2.7750   -6.2550 C.3    21  TRP21       0.0452
     19  CD1       -6.8760    3.0110   -7.4280 C.3    21  TRP21       0.1165
     20  NE1       -6.9590    1.8860   -8.2330 N.pl3  21  TRP21      -0.2376
     21  CE2       -6.4300    0.7670   -7.6180 C.ar   21  TRP21       0.0614
     22  CZ2       -6.4080   -0.5770   -8.0000 C.ar   21  TRP21       0.0158
     23  CH2       -5.9740   -1.4990   -7.0380 C.ar   21  TRP21       0.0013
     24  CZ3       -5.3530   -1.0000   -5.8470 C.ar   21  TRP21      -0.0002
     25  CE3       -5.3710    0.3600   -5.5650 C.ar   21  TRP21      -0.0030
     26  CD2       -5.9220    1.3390   -6.4120 C.ar   21  TRP21      -0.0059
@<TRIPOS>BOND
     1    22    23   ar
     2    22    21   ar
     3    23    24   ar
     4    21    20    1
     5    21    26   ar
     6    24    25   ar
     7    20    19    1
     8    25    26   ar
     9    26    18    1
    10    19    18    1
    11    18    17    1
    12     3     2    1
    13     2     4    1
    14     2     1    1
    15     5     6    1
    16     7     6   ar
    17    13    15    1
    18    13    14    1
    19    15    16    1
    20     6     8   ar
    21     9    11    1
    22     9    10    1
    23    11    12    1
@<TRIPOS>MOLECULE
9871593
 37 40 0 0 0
SMALL
GASTEIGER

@<TRIPOS>ATOM
      1 O          -4.9259   -2.1204   -4.9103 O.3     1  LIG11      -0.4526
      2 O          -6.1321   -3.0347   -6.7902 O.3     1  LIG11      -0.4526
      3 O          -3.1705    3.7557   -0.8609 O.3     1  LIG11      -0.4913
      4 O          -7.5855    2.5048    0.6507 O.3     1  LIG11      -0.4913
      5 O          -4.9756    3.3078    1.2504 O.3     1  LIG11      -0.4885
      6 O          -4.0373    4.8238   -5.5225 O.2     1  LIG11      -0.2870
      7 O          -5.8231    4.1474   -8.1317 O.co2   1  LIG11      -0.5446
      8 O          -4.0806    2.6698   -8.3354 O.co2   1  LIG11      -0.5446
      9 O          -7.7672    8.9559   -2.6424 O.3     1  LIG11      -0.4951
     10 C          -6.6638    2.7858   -4.1840 C.3     1  LIG11       0.0021
     11 C          -5.8354    3.2729   -5.3445 C.2     1  LIG11       0.0135
     12 C          -6.1580    2.9270   -2.7625 C.ar    1  LIG11      -0.0358
     13 C          -5.5357    2.5265   -6.4345 C.2     1  LIG11       0.0117
     14 C          -5.7520    1.0695   -6.5609 C.ar    1  LIG11      -0.0121
     15 C          -5.2337    4.6525   -5.2803 C.2     1  LIG11       0.1901
     16 C          -7.0846    2.6961   -1.7267 C.ar    1  LIG11      -0.0126
     17 C          -4.8400    3.2296   -2.4151 C.ar    1  LIG11      -0.0126
     18 C          -5.1952    0.2023   -5.6024 C.ar    1  LIG11      -0.0084
     19 C          -5.3835   -1.1553   -5.7538 C.ar    1  LIG11       0.1668
     20 C          -6.4567    0.5200   -7.6555 C.ar    1  LIG11      -0.0503
     21 C          -6.0744   -1.6753   -6.8218 C.ar    1  LIG11       0.1663
     22 C          -4.4829    3.4108   -1.0737 C.ar    1  LIG11       0.1654
     23 C          -6.7219    2.7892   -0.3779 C.ar    1  LIG11       0.1654
     24 C          -5.9789    5.7751   -4.6630 C.ar    1  LIG11       0.0222
     25 C          -5.4198    3.2004   -0.0473 C.ar    1  LIG11       0.2035
     26 C          -6.6192   -0.8649   -7.7934 C.ar    1  LIG11      -0.0156
     27 C          -5.0569    3.2098   -7.7446 C.2     1  LIG11       0.0726
     28 C          -5.3709   -3.3057   -5.5956 C.3     1  LIG11       0.2332
     29 C          -5.2506    6.6582   -3.8516 C.ar    1  LIG11      -0.0475
     30 C          -7.3457    5.9843   -4.8508 C.ar    1  LIG11      -0.0475
     31 C          -5.8930    7.7094   -3.1992 C.ar    1  LIG11      -0.0193
     32 C          -7.9893    7.0393   -4.1858 C.ar    1  LIG11      -0.0193
     33 C          -7.2664    7.8989   -3.3524 C.ar    1  LIG11       0.1201
     34 C          -3.0220    4.9308   -0.0681 C.3     1  LIG11       0.0790
     35 C          -8.6785    1.6467    0.3451 C.3     1  LIG11       0.0790
     36 C          -5.8136    4.1081    2.0802 C.3     1  LIG11       0.0791
     37 C          -9.1608    9.2023   -2.7530 C.3     1  LIG11       0.0788
@<TRIPOS>BOND
     1     1    19    1
     2     1    28    1
     3     2    28    1
     4     2    21    1
     5     3    22    1
     6     3    34    1
     7     4    23    1
     8     4    35    1
     9     5    25    1
    10     5    36    1
    11     6    15    2
    12     7    27   ar
    13     8    27   ar
    14     9    33    1
    15     9    37    1
    16    10    11    1
    17    10    12    1
    18    11    13    2
    19    11    15    1
    20    12    16   ar
    21    12    17   ar
    22    13    14    1
    23    13    27    1
    24    14    20   ar
    25    14    18   ar
    26    15    24    1
    27    16    23   ar
    28    17    22   ar
    29    18    19   ar
    30    19    21   ar
    31    20    26   ar
    32    21    26   ar
    33    22    25   ar
    34    23    25   ar
    35    24    29   ar
    36    24    30   ar
    37    29    31   ar
    38    30    32   ar
    39    31    33   ar
    40    32    33   ar
@<TRIPOS>MOLECULE
../ET1/ET1_17-21_50CONFORMERS.pdb
 47 48 0 0 0
SMALL
GASTEIGER

@<TRIPOS>ATOM
      1  N         -4.5630    0.0480   -1.4950 N.3    17  LEU17      -0.1231
      2  CA        -5.8010   -0.7600   -1.6870 C.3    17  LEU17       0.1693
      3  CB        -5.9910   -1.7310   -0.5350 C.3    17  LEU17       0.0284
      4  CG        -7.3580   -2.4930   -0.5800 C.3    17  LEU17       0.0019
      5  CD1       -7.5600   -3.4620   -1.7150 C.3    17  LEU17       0.0001
      6  CD2       -7.4530   -3.3820    0.6830 C.3    17  LEU17       0.0001
      7  C         -7.0420    0.1310   -1.8120 C.2    17  LEU17       0.2592
      8  O         -7.8800   -0.0650   -2.6740 O.2    17  LEU17      -0.2718
      9  N         -7.1700    1.1060   -0.8810 N.am   18  ASP18      -0.1960
     10  CA        -8.3690    1.8940   -0.6090 C.3    18  ASP18       0.1840
     11  CB        -9.1650    0.9770    0.3400 C.3    18  ASP18       0.1450
     12  CG       -10.4650    1.6800    0.7040 C.2    18  ASP18       0.3671
     13  OD1      -11.3360    1.8120   -0.1900 O.co2  18  ASP18      -0.2456
     14  OD2      -10.6500    2.1090    1.8620 O.co2  18  ASP18      -0.2456
     15  C         -8.1070    3.2940   -0.0020 C.2    18  ASP18       0.2622
     16  O         -8.7200    4.2330   -0.4670 O.2    18  ASP18      -0.2715
     17  N         -7.2480    3.5040    0.9560 N.am   19  ILE19      -0.1963
     18  CA        -6.8550    4.7290    1.4720 C.3    19  ILE19       0.1727
     19  CB        -6.3180    4.5590    2.8920 C.3    19  ILE19       0.0290
     20  CG2       -4.8670    4.0770    3.0310 C.3    19  ILE19       0.0023
     21  CG1       -6.5010    5.8200    3.7530 C.3    19  ILE19       0.0022
     22  CD1       -6.2860    5.7290    5.2240 C.3    19  ILE19       0.0001
     23  C         -5.9550    5.4860    0.5380 C.2    19  ILE19       0.2616
     24  O         -6.3810    6.5790    0.1880 O.2    19  ILE19      -0.2715
     25  N         -5.0060    4.7520   -0.0440 N.am   20  ILE20      -0.1963
     26  CA        -4.2710    5.1980   -1.2230 C.3    20  ILE20       0.1727
     27  CB        -2.8750    5.6400   -0.9260 C.3    20  ILE20       0.0290
     28  CG2       -2.9020    6.8270    0.0290 C.3    20  ILE20       0.0023
     29  CG1       -2.0780    4.4810   -0.2880 C.3    20  ILE20       0.0022
     30  CD1       -0.5920    4.8190   -0.0850 C.3    20  ILE20       0.0001
     31  C         -4.2360    4.1750   -2.3860 C.2    20  ILE20       0.2617
     32  O         -4.4130    2.9690   -2.1380 O.2    20  ILE20      -0.2715
     33  N         -4.2410    4.7470   -3.5730 N.am   21  TRP21      -0.1941
     34  CA        -4.2900    4.0880   -4.8450 C.3    21  TRP21       0.1982
     35  CB        -5.7850    3.6920   -5.1280 C.3    21  TRP21       0.0394
     36  CG        -6.1880    2.7750   -6.2550 C.3    21  TRP21       0.0475
     37  CD1       -6.8760    3.0110   -7.4280 C.3    21  TRP21       0.1166
     38  NE1       -6.9590    1.8860   -8.2330 N.pl3  21  TRP21      -0.2376
     39  CE2       -6.4300    0.7670   -7.6180 C.ar   21  TRP21       0.0614
     40  CZ2       -6.4080   -0.5770   -8.0000 C.ar   21  TRP21       0.0158
     41  CH2       -5.9740   -1.4990   -7.0380 C.ar   21  TRP21       0.0013
     42  CZ3       -5.3530   -1.0000   -5.8470 C.ar   21  TRP21      -0.0002
     43  CE3       -5.3710    0.3600   -5.5650 C.ar   21  TRP21      -0.0030
     44  CD2       -5.9220    1.3390   -6.4120 C.ar   21  TRP21      -0.0059
     45  C         -3.6540    4.9650   -5.9610 C.2    21  TRP21       0.3842
     46  O         -3.8740    6.1890   -5.9220 O.co2  21  TRP21      -0.2437
     47  OXT       -2.8330    4.4760   -6.7700 O.co2  21  TRP21      -0.2437
@<TRIPOS>BOND
     1    40    41   ar
     2    40    39   ar
     3    41    42   ar
     4    39    38    1
     5    39    44   ar
     6    42    43   ar
     7    38    37    1
     8    43    44   ar
     9    44    36    1
    10    37    36    1
    11    36    35    1
    12    47    45   ar
    13     5     4    1
    14    35    34    1
    15    45    34    1
    16    45    46   ar
    17    34    33    1
    18     8     7    2
    19     4     6    1
    20     4     3    1
    21     2     3    1
    22     2     1    1
    23     2     7    1
    24     7     9   am
    25    33    31   am
    26    32    31    2
    27    31    26    1
    28     9    10    1
    29    10    11    1
    30    10    15    1
    31    26    27    1
    32    26    25    1
    33    11    12    1
    34    13    12   ar
    35    27    29    1
    36    27    28    1
    37    29    30    1
    38    16    15    2
    39    15    17   am
    40    12    14   ar
    41    25    23   am
    42    17    18    1
    43    23    24    2
    44    23    18    1
    45    18    19    1
    46    19    21    1
    47    19    20    1
    48    21    22    1
