@<TRIPOS>MOLECULE
../ET1/ET1_17-21_50CONFORMERS_NOBACKBONE.pdb
 26 23 0 0 0
SMALL
GASTEIGER

@<TRIPOS>ATOM
      1  CB        -6.3930   -2.1110   -1.2450 C.3    17  LEU17       0.0000
      2  CG        -7.8050   -2.6450   -1.5590 C.3    17  LEU17       0.0000
      3  CD1       -8.0140   -2.9180   -3.0380 C.3    17  LEU17       0.0000
      4  CD2       -7.9070   -3.9870   -0.9150 C.3    17  LEU17       0.0000
      5  CB        -9.3620    1.4500    0.8640 C.3    18  ASP18       0.1258
      6  CG       -10.6720    2.2570    1.0000 C.2    18  ASP18       0.3654
      7  OD1      -11.6310    1.9220    0.2700 O.co2  18  ASP18      -0.2456
      8  OD2      -10.5730    3.2610    1.7420 O.co2  18  ASP18      -0.2456
      9  CB        -5.0550    3.8790    3.3490 C.3    19  ILE19       0.0000
     10  CG2       -4.4720    5.1840    3.9940 C.3    19  ILE19       0.0000
     11  CG1       -5.7460    2.9110    4.3260 C.3    19  ILE19       0.0000
     12  CD1       -4.7660    1.9810    5.1360 C.3    19  ILE19       0.0000
     13  CB        -2.5890    4.6890   -1.2580 C.3    20  ILE20       0.0000
     14  CG2       -2.0360    5.2650   -2.5660 C.3    20  ILE20       0.0000
     15  CG1       -1.8000    5.2360   -0.0430 C.3    20  ILE20       0.0000
     16  CD1       -0.3250    4.8950   -0.2060 C.3    20  ILE20       0.0000
     17  CB        -8.1130    4.2690   -3.5790 C.3    21  TRP21       0.0066
     18  CG        -8.8290    3.5660   -4.6970 C.3    21  TRP21       0.0452
     19  CD1       -9.9260    4.0510   -5.2650 C.3    21  TRP21       0.1165
     20  NE1      -10.2060    3.2220   -6.3210 N.pl3  21  TRP21      -0.2376
     21  CE2       -9.3890    2.1000   -6.4570 C.ar   21  TRP21       0.0614
     22  CZ2       -9.1720    1.1080   -7.4220 C.ar   21  TRP21       0.0158
     23  CH2       -8.0480    0.2790   -7.2920 C.ar   21  TRP21       0.0013
     24  CZ3       -7.2130    0.4420   -6.1700 C.ar   21  TRP21      -0.0002
     25  CE3       -7.3150    1.4940   -5.3170 C.ar   21  TRP21      -0.0030
     26  CD2       -8.4260    2.3550   -5.4210 C.ar   21  TRP21      -0.0059
@<TRIPOS>BOND
     1    22    23   ar
     2    22    21   ar
     3    23    24   ar
     4    21    20    1
     5    21    26   ar
     6    24    25   ar
     7    20    19    1
     8    25    26   ar
     9    26    18    1
    10    19    18    1
    11    18    17    1
    12     3     2    1
    13     2     4    1
    14     2     1    1
    15     5     6    1
    16     7     6   ar
    17    13    15    1
    18    13    14    1
    19    15    16    1
    20     6     8   ar
    21     9    11    1
    22     9    10    1
    23    11    12    1
@<TRIPOS>MOLECULE
16004692
 32 34 0 0 0
SMALL
GASTEIGER

@<TRIPOS>ATOM
      1 BR        -10.3292    0.2011   -9.1953 Br      1  LIG11      -0.0503
      2 BR          2.6149    3.4704   -3.1813 Br      1  LIG11      -0.0472
      3 S          -8.6080    1.0493   -1.7965 S.O2    1  LIG11       0.1104
      4 O          -4.5372    0.7804   -5.7851 O.3     1  LIG11      -0.4724
      5 O          -8.0008    1.3646   -0.5244 O.2     1  LIG11      -0.1381
      6 O         -10.0351    0.8913   -1.9207 O.2     1  LIG11      -0.1381
      7 O          -1.3908    1.9260   -7.2948 O.3     1  LIG11      -0.4590
      8 N          -7.8513   -0.3448   -2.3522 N.3     1  LIG11      -0.1771
      9 N          -8.1305    2.2066   -2.9129 N.pl3   1  LIG11      -0.1889
     10 N          -5.9374    2.6108   -2.4099 N.ar    1  LIG11      -0.2186
     11 N          -4.1429    1.8448   -3.7478 N.ar    1  LIG11      -0.2008
     12 N           0.7522    1.8606   -6.5033 N.ar    1  LIG11      -0.2022
     13 N          -0.9110    3.0818   -5.3051 N.ar    1  LIG11      -0.2022
     14 C          -8.3106   -1.5860   -1.6858 C.3     1  LIG11       0.0185
     15 C          -6.4178    1.5478   -4.5542 C.ar    1  LIG11       0.0848
     16 C          -6.7787    2.1405   -3.3440 C.ar    1  LIG11       0.1532
     17 C          -7.4725   -2.7513   -2.2086 C.3     1  LIG11      -0.0416
     18 C          -7.3859    1.1718   -5.6245 C.ar    1  LIG11      -0.0094
     19 C          -5.0340    1.4190   -4.6680 C.ar    1  LIG11       0.2276
     20 C          -7.6812   -4.0067   -1.3790 C.3     1  LIG11      -0.0641
     21 C          -7.2093    0.0398   -6.4445 C.ar    1  LIG11      -0.0527
     22 C          -8.5080    1.9793   -5.9067 C.ar    1  LIG11      -0.0527
     23 C          -3.1235    0.8121   -5.9768 C.3     1  LIG11       0.1252
     24 C          -8.0730   -0.2450   -7.5113 C.ar    1  LIG11      -0.0472
     25 C          -9.3969    1.6815   -6.9476 C.ar    1  LIG11      -0.0472
     26 C          -4.6426    2.4425   -2.6671 C.ar    1  LIG11       0.1219
     27 C          -2.7533    1.9855   -6.8809 C.3     1  LIG11       0.1267
     28 C          -9.1648    0.5776   -7.7563 C.ar    1  LIG11       0.0179
     29 C          -0.4977    2.3117   -6.3247 C.ar    1  LIG11       0.3180
     30 C           1.6504    2.2170   -5.5607 C.ar    1  LIG11       0.0483
     31 C           0.0294    3.4114   -4.3943 C.ar    1  LIG11       0.0483
     32 C           1.3394    2.9995   -4.4732 C.ar    1  LIG11       0.0543
@<TRIPOS>BOND
     1     1    28    1
     2     2    32    1
     3     3     5    2
     4     3     6    2
     5     3     8    1
     6     3     9    1
     7     4    19    1
     8     4    23    1
     9     7    27    1
    10     7    29    1
    11     8    14    1
    12     9    16    1
    13    10    16   ar
    14    10    26   ar
    15    11    19   ar
    16    11    26   ar
    17    12    29   ar
    18    12    30   ar
    19    13    29   ar
    20    13    31   ar
    21    14    17    1
    22    15    16   ar
    23    15    18    1
    24    15    19   ar
    25    17    20    1
    26    18    21   ar
    27    18    22   ar
    28    21    24   ar
    29    22    25   ar
    30    23    27    1
    31    24    28   ar
    32    25    28   ar
    33    30    32   ar
    34    31    32   ar
@<TRIPOS>MOLECULE
../ET1/ET1_17-21_50CONFORMERS.pdb
 47 48 0 0 0
SMALL
GASTEIGER

@<TRIPOS>ATOM
      1  N         -4.8610   -0.2350   -1.3410 N.3    17  LEU17      -0.1231
      2  CA        -6.1980   -0.6940   -1.8490 C.3    17  LEU17       0.1693
      3  CB        -6.3930   -2.1110   -1.2450 C.3    17  LEU17       0.0284
      4  CG        -7.8050   -2.6450   -1.5590 C.3    17  LEU17       0.0019
      5  CD1       -8.0140   -2.9180   -3.0380 C.3    17  LEU17       0.0001
      6  CD2       -7.9070   -3.9870   -0.9150 C.3    17  LEU17       0.0001
      7  C         -7.2730    0.3850   -1.5790 C.2    17  LEU17       0.2592
      8  O         -8.0840    0.6620   -2.4580 O.2    17  LEU17      -0.2718
      9  N         -7.2350    1.0770   -0.4310 N.am   18  ASP18      -0.1960
     10  CA        -8.2450    2.0950   -0.0220 C.3    18  ASP18       0.1840
     11  CB        -9.3620    1.4500    0.8640 C.3    18  ASP18       0.1450
     12  CG       -10.6720    2.2570    1.0000 C.2    18  ASP18       0.3671
     13  OD1      -11.6310    1.9220    0.2700 O.co2  18  ASP18      -0.2456
     14  OD2      -10.5730    3.2610    1.7420 O.co2  18  ASP18      -0.2456
     15  C         -7.6690    3.3430    0.6470 C.2    18  ASP18       0.2622
     16  O         -8.1140    4.4430    0.3020 O.2    18  ASP18      -0.2715
     17  N         -6.7110    3.1950    1.5940 N.am   19  ILE19      -0.1963
     18  CA        -6.0160    4.3380    2.1630 C.3    19  ILE19       0.1727
     19  CB        -5.0550    3.8790    3.3490 C.3    19  ILE19       0.0290
     20  CG2       -4.4720    5.1840    3.9940 C.3    19  ILE19       0.0023
     21  CG1       -5.7460    2.9110    4.3260 C.3    19  ILE19       0.0022
     22  CD1       -4.7660    1.9810    5.1360 C.3    19  ILE19       0.0001
     23  C         -5.2160    5.0880    1.1020 C.2    19  ILE19       0.2616
     24  O         -4.9940    6.2970    1.0190 O.2    19  ILE19      -0.2715
     25  N         -4.7410    4.3480    0.0970 N.am   20  ILE20      -0.1963
     26  CA        -4.1220    4.8230   -1.1620 C.3    20  ILE20       0.1727
     27  CB        -2.5890    4.6890   -1.2580 C.3    20  ILE20       0.0290
     28  CG2       -2.0360    5.2650   -2.5660 C.3    20  ILE20       0.0023
     29  CG1       -1.8000    5.2360   -0.0430 C.3    20  ILE20       0.0022
     30  CD1       -0.3250    4.8950   -0.2060 C.3    20  ILE20       0.0001
     31  C         -4.9050    4.2320   -2.2970 C.2    20  ILE20       0.2617
     32  O         -4.8850    3.0030   -2.5220 O.2    20  ILE20      -0.2715
     33  N         -5.7970    5.0310   -2.9350 N.am   21  TRP21      -0.1941
     34  CA        -6.6830    4.6520   -4.0820 C.3    21  TRP21       0.1982
     35  CB        -8.1130    4.2690   -3.5790 C.3    21  TRP21       0.0394
     36  CG        -8.8290    3.5660   -4.6970 C.3    21  TRP21       0.0475
     37  CD1       -9.9260    4.0510   -5.2650 C.3    21  TRP21       0.1166
     38  NE1      -10.2060    3.2220   -6.3210 N.pl3  21  TRP21      -0.2376
     39  CE2       -9.3890    2.1000   -6.4570 C.ar   21  TRP21       0.0614
     40  CZ2       -9.1720    1.1080   -7.4220 C.ar   21  TRP21       0.0158
     41  CH2       -8.0480    0.2790   -7.2920 C.ar   21  TRP21       0.0013
     42  CZ3       -7.2130    0.4420   -6.1700 C.ar   21  TRP21      -0.0002
     43  CE3       -7.3150    1.4940   -5.3170 C.ar   21  TRP21      -0.0030
     44  CD2       -8.4260    2.3550   -5.4210 C.ar   21  TRP21      -0.0059
     45  C         -6.7050    5.7420   -5.1900 C.2    21  TRP21       0.3842
     46  O         -6.0970    5.4510   -6.2480 O.co2  21  TRP21      -0.2437
     47  OXT       -7.3810    6.7920   -5.1470 O.co2  21  TRP21      -0.2437
@<TRIPOS>BOND
     1    40    41   ar
     2    40    39   ar
     3    41    42   ar
     4    39    38    1
     5    39    44   ar
     6    42    43   ar
     7    38    37    1
     8    43    44   ar
     9    44    36    1
    10    37    36    1
    11    36    35    1
    12    47    45   ar
    13     5     4    1
    14    35    34    1
    15    45    34    1
    16    45    46   ar
    17    34    33    1
    18     8     7    2
    19     4     6    1
    20     4     3    1
    21     2     3    1
    22     2     1    1
    23     2     7    1
    24     7     9   am
    25    33    31   am
    26    32    31    2
    27    31    26    1
    28     9    10    1
    29    10    11    1
    30    10    15    1
    31    26    27    1
    32    26    25    1
    33    11    12    1
    34    13    12   ar
    35    27    29    1
    36    27    28    1
    37    29    30    1
    38    16    15    2
    39    15    17   am
    40    12    14   ar
    41    25    23   am
    42    17    18    1
    43    23    24    2
    44    23    18    1
    45    18    19    1
    46    19    21    1
    47    19    20    1
    48    21    22    1
