@<TRIPOS>MOLECULE
../ET1/ET1_17-21_50CONFORMERS_NOBACKBONE.pdb
 26 23 0 0 0
SMALL
GASTEIGER

@<TRIPOS>ATOM
      1  CB        -5.8230   -1.3000   -0.0200 C.3    17  LEU17       0.0000
      2  CG        -7.1210   -2.0520    0.2730 C.3    17  LEU17       0.0000
      3  CD1       -7.3450   -3.3240   -0.5260 C.3    17  LEU17       0.0000
      4  CD2       -7.1050   -2.4320    1.7560 C.3    17  LEU17       0.0000
      5  CB        -9.8100    1.4940   -0.6650 C.3    18  ASP18       0.1258
      6  CG       -10.9800    2.4410   -1.1080 C.2    18  ASP18       0.3654
      7  OD1      -11.1620    2.6260   -2.3450 O.co2  18  ASP18      -0.2456
      8  OD2      -11.6890    3.0500   -0.2610 O.co2  18  ASP18      -0.2456
      9  CB        -6.3810    4.5930    2.3780 C.3    19  ILE19       0.0000
     10  CG2       -5.1090    3.7040    2.3320 C.3    19  ILE19       0.0000
     11  CG1       -5.9960    5.9430    3.0860 C.3    19  ILE19       0.0000
     12  CD1       -5.9900    5.6400    4.6020 C.3    19  ILE19       0.0000
     13  CB        -3.0010    5.5600   -0.9960 C.3    20  ILE20       0.0000
     14  CG2       -3.0220    6.7560   -0.0120 C.3    20  ILE20       0.0000
     15  CG1       -2.3580    4.3220   -0.4780 C.3    20  ILE20       0.0000
     16  CD1       -0.8540    4.5810   -0.0790 C.3    20  ILE20       0.0000
     17  CB        -6.4600    3.3010   -5.4360 C.3    21  TRP21       0.0066
     18  CG        -6.1540    2.0960   -6.3470 C.3    21  TRP21       0.0452
     19  CD1       -6.5110    2.0410   -7.7090 C.3    21  TRP21       0.1165
     20  NE1       -6.2560    0.7800   -8.2410 N.pl3  21  TRP21      -0.2376
     21  CE2       -5.8060   -0.0630   -7.2480 C.ar   21  TRP21       0.0614
     22  CZ2       -5.4890   -1.4340   -7.1970 C.ar   21  TRP21       0.0158
     23  CH2       -4.8030   -2.0280   -6.1140 C.ar   21  TRP21       0.0013
     24  CZ3       -4.5240   -1.2220   -5.0000 C.ar   21  TRP21      -0.0002
     25  CE3       -4.9630    0.1690   -4.9520 C.ar   21  TRP21      -0.0030
     26  CD2       -5.6260    0.7530   -6.0730 C.ar   21  TRP21      -0.0059
@<TRIPOS>BOND
     1    22    23   ar
     2    22    21   ar
     3    23    24   ar
     4    21    20    1
     5    21    26   ar
     6    24    25   ar
     7    20    19    1
     8    25    26   ar
     9    26    18    1
    10    19    18    1
    11    18    17    1
    12     3     2    1
    13     2     4    1
    14     2     1    1
    15     5     6    1
    16     7     6   ar
    17    13    15    1
    18    13    14    1
    19    15    16    1
    20     6     8   ar
    21     9    11    1
    22     9    10    1
    23    11    12    1
@<TRIPOS>MOLECULE
02228316B
 42 46 0 0 0
SMALL
GASTEIGER

@<TRIPOS>ATOM
      1 C          -5.2491    4.4712    2.1372 C.3     1  LIG11       0.2491
      2 C          -4.8919    3.0324    1.8227 C.2     1  LIG11       0.3556
      3 N          -4.4443    5.2586    1.1687 N.2     1  LIG11      -0.0687
      4 C          -6.7351    4.8007    1.9882 C.3     1  LIG11       0.0059
      5 C          -4.8479    4.8565    3.5647 C.3     1  LIG11       0.0059
      6 N          -3.8908    3.0961    0.8970 N.am    1  LIG11      -0.1529
      7 O          -5.3791    2.0306    2.3225 O.2     1  LIG11      -0.2422
      8 C          -3.7058    4.3855    0.5550 C.2     1  LIG11       0.2916
      9 C          -7.1832    5.2698    3.3711 C.3     1  LIG11      -0.0481
     10 C          -5.9233    5.8400    4.0000 C.3     1  LIG11      -0.0481
     11 C          -3.1839    1.9167    0.4314 C.3     1  LIG11       0.1137
     12 C          -2.6928    4.7735   -0.4981 C.3     1  LIG11       0.0509
     13 C          -3.6743    1.4094   -0.8976 C.ar    1  LIG11      -0.0073
     14 C          -2.5974    6.2712   -0.7880 C.3     1  LIG11      -0.0424
     15 C          -4.9164    0.8062   -1.0460 C.ar    1  LIG11      -0.0491
     16 C          -2.9136    1.5335   -2.0375 C.ar    1  LIG11      -0.0544
     17 C          -1.8872    7.0537    0.3185 C.3     1  LIG11      -0.0554
     18 C          -5.3830    0.2641   -2.2923 C.ar    1  LIG11      -0.0138
     19 C          -3.3832    1.0306   -3.2602 C.ar    1  LIG11      -0.0533
     20 C          -1.7573    8.5246   -0.0477 C.3     1  LIG11      -0.0653
     21 C          -4.5586    0.2967   -3.4677 C.ar    1  LIG11      -0.0106
     22 C          -6.8065   -0.2565   -2.1693 C.3     1  LIG11       0.0732
     23 C          -4.8263   -0.3509   -4.8497 C.ar    1  LIG11       0.0091
     24 O          -6.9466   -1.6568   -2.3639 O.3     1  LIG11      -0.3754
     25 C          -3.9063   -0.7158   -5.8997 C.ar    1  LIG11       0.1162
     26 C          -6.1697   -0.6722   -5.1807 C.ar    1  LIG11      -0.0521
     27 C          -6.3724   -2.4638   -1.3364 C.3     1  LIG11       0.0453
     28 S          -2.1278   -0.3987   -6.0226 S.O2    1  LIG11       0.0741
     29 C          -4.3530   -1.4263   -7.0598 C.ar    1  LIG11      -0.0345
     30 C          -6.5923   -1.3765   -6.3204 C.ar    1  LIG11      -0.0611
     31 C          -7.0687   -2.3047    0.0068 C.3     1  LIG11      -0.0416
     32 N          -2.0759    1.1140   -6.7954 N.pl3   1  LIG11      -0.1965
     33 O          -1.4846   -0.3696   -4.7324 O.2     1  LIG11      -0.1499
     34 O          -1.5751   -1.2952   -7.0274 O.2     1  LIG11      -0.1499
     35 C          -5.6763   -1.7740   -7.2598 C.ar    1  LIG11      -0.0599
     36 C          -1.8573    2.2807   -6.0740 C.ar    1  LIG11       0.1837
     37 C          -0.6417    2.7338   -5.5004 C.ar    1  LIG11       0.0342
     38 N          -2.8536    3.1428   -5.8580 N.ar    1  LIG11      -0.0614
     39 C          -1.0099    3.8879   -4.8375 C.ar    1  LIG11       0.1390
     40 C           0.6950    2.1029   -5.5285 C.3     1  LIG11      -0.0330
     41 O          -2.3275    4.1355   -5.0560 O.2     1  LIG11      -0.3578
     42 C          -0.3090    4.8430   -3.9582 C.3     1  LIG11      -0.0034
@<TRIPOS>BOND
     1     1     5    1
     2     1     4    1
     3     1     2    1
     4     1     3    1
     5     2     6   am
     6     2     7    2
     7     3     8    2
     8     4     9    1
     9     5    10    1
    10     6     8    1
    11     6    11    1
    12     8    12    1
    13     9    10    1
    14    11    13    1
    15    12    14    1
    16    13    15   ar
    17    13    16   ar
    18    14    17    1
    19    15    18   ar
    20    16    19   ar
    21    17    20    1
    22    18    21   ar
    23    18    22    1
    24    19    21   ar
    25    21    23    1
    26    22    24    1
    27    23    26   ar
    28    23    25   ar
    29    24    27    1
    30    25    29   ar
    31    25    28    1
    32    26    30   ar
    33    27    31    1
    34    28    34    2
    35    28    33    2
    36    28    32    1
    37    29    35   ar
    38    30    35   ar
    39    32    36    1
    40    36    37   ar
    41    36    38   ar
    42    37    39   ar
    43    37    40    1
    44    38    41   ar
    45    39    41   ar
    46    39    42    1
@<TRIPOS>MOLECULE
../ET1/ET1_17-21_50CONFORMERS.pdb
 47 48 0 0 0
SMALL
GASTEIGER

@<TRIPOS>ATOM
      1  N         -4.4720    0.1410   -1.4080 N.3    17  LEU17      -0.1231
      2  CA        -5.6790   -0.6380   -1.3690 C.3    17  LEU17       0.1693
      3  CB        -5.8230   -1.3000   -0.0200 C.3    17  LEU17       0.0284
      4  CG        -7.1210   -2.0520    0.2730 C.3    17  LEU17       0.0019
      5  CD1       -7.3450   -3.3240   -0.5260 C.3    17  LEU17       0.0001
      6  CD2       -7.1050   -2.4320    1.7560 C.3    17  LEU17       0.0001
      7  C         -6.8980    0.2070   -1.7660 C.2    17  LEU17       0.2592
      8  O         -7.5610   -0.0070   -2.7650 O.2    17  LEU17      -0.2718
      9  N         -7.3770    1.1650   -0.9800 N.am   18  ASP18      -0.1960
     10  CA        -8.4900    2.0500   -1.2600 C.3    18  ASP18       0.1840
     11  CB        -9.8100    1.4940   -0.6650 C.3    18  ASP18       0.1450
     12  CG       -10.9800    2.4410   -1.1080 C.2    18  ASP18       0.3671
     13  OD1      -11.1620    2.6260   -2.3450 O.co2  18  ASP18      -0.2456
     14  OD2      -11.6890    3.0500   -0.2610 O.co2  18  ASP18      -0.2456
     15  C         -8.1570    3.4170   -0.7330 C.2    18  ASP18       0.2622
     16  O         -8.3600    4.4270   -1.4500 O.2    18  ASP18      -0.2715
     17  N         -7.5900    3.5370    0.4990 N.am   19  ILE19      -0.1963
     18  CA        -7.2060    4.8060    1.0980 C.3    19  ILE19       0.1727
     19  CB        -6.3810    4.5930    2.3780 C.3    19  ILE19       0.0290
     20  CG2       -5.1090    3.7040    2.3320 C.3    19  ILE19       0.0023
     21  CG1       -5.9960    5.9430    3.0860 C.3    19  ILE19       0.0022
     22  CD1       -5.9900    5.6400    4.6020 C.3    19  ILE19       0.0001
     23  C         -6.3560    5.5680    0.0420 C.2    19  ILE19       0.2616
     24  O         -6.4380    6.7870   -0.0320 O.2    19  ILE19      -0.2715
     25  N         -5.4290    4.8700   -0.5810 N.am   20  ILE20      -0.1963
     26  CA        -4.4440    5.3370   -1.5350 C.3    20  ILE20       0.1727
     27  CB        -3.0010    5.5600   -0.9960 C.3    20  ILE20       0.0290
     28  CG2       -3.0220    6.7560   -0.0120 C.3    20  ILE20       0.0023
     29  CG1       -2.3580    4.3220   -0.4780 C.3    20  ILE20       0.0022
     30  CD1       -0.8540    4.5810   -0.0790 C.3    20  ILE20       0.0001
     31  C         -4.5130    4.3060   -2.7300 C.2    20  ILE20       0.2617
     32  O         -4.1930    3.1280   -2.6370 O.2    20  ILE20      -0.2715
     33  N         -4.9570    4.7520   -3.9100 N.am   21  TRP21      -0.1941
     34  CA        -5.0770    3.9470   -5.1760 C.3    21  TRP21       0.1982
     35  CB        -6.4600    3.3010   -5.4360 C.3    21  TRP21       0.0394
     36  CG        -6.1540    2.0960   -6.3470 C.3    21  TRP21       0.0475
     37  CD1       -6.5110    2.0410   -7.7090 C.3    21  TRP21       0.1166
     38  NE1       -6.2560    0.7800   -8.2410 N.pl3  21  TRP21      -0.2376
     39  CE2       -5.8060   -0.0630   -7.2480 C.ar   21  TRP21       0.0614
     40  CZ2       -5.4890   -1.4340   -7.1970 C.ar   21  TRP21       0.0158
     41  CH2       -4.8030   -2.0280   -6.1140 C.ar   21  TRP21       0.0013
     42  CZ3       -4.5240   -1.2220   -5.0000 C.ar   21  TRP21      -0.0002
     43  CE3       -4.9630    0.1690   -4.9520 C.ar   21  TRP21      -0.0030
     44  CD2       -5.6260    0.7530   -6.0730 C.ar   21  TRP21      -0.0059
     45  C         -4.6800    4.8700   -6.3890 C.2    21  TRP21       0.3842
     46  O         -5.3780    5.8440   -6.6380 O.co2  21  TRP21      -0.2437
     47  OXT       -3.6890    4.5570   -7.0760 O.co2  21  TRP21      -0.2437
@<TRIPOS>BOND
     1    40    41   ar
     2    40    39   ar
     3    41    42   ar
     4    39    38    1
     5    39    44   ar
     6    42    43   ar
     7    38    37    1
     8    43    44   ar
     9    44    36    1
    10    37    36    1
    11    36    35    1
    12    47    45   ar
    13     5     4    1
    14    35    34    1
    15    45    34    1
    16    45    46   ar
    17    34    33    1
    18     8     7    2
    19     4     6    1
    20     4     3    1
    21     2     3    1
    22     2     1    1
    23     2     7    1
    24     7     9   am
    25    33    31   am
    26    32    31    2
    27    31    26    1
    28     9    10    1
    29    10    11    1
    30    10    15    1
    31    26    27    1
    32    26    25    1
    33    11    12    1
    34    13    12   ar
    35    27    29    1
    36    27    28    1
    37    29    30    1
    38    16    15    2
    39    15    17   am
    40    12    14   ar
    41    25    23   am
    42    17    18    1
    43    23    24    2
    44    23    18    1
    45    18    19    1
    46    19    21    1
    47    19    20    1
    48    21    22    1
