@<TRIPOS>MOLECULE
../ET1/ET1_17-21_50CONFORMERS_NOBACKBONE.pdb
 26 23 0 0 0
SMALL
GASTEIGER

@<TRIPOS>ATOM
      1  CB        -5.5600   -1.8760   -2.4960 C.3    17  LEU17       0.0000
      2  CG        -6.8600   -2.5850   -2.8960 C.3    17  LEU17       0.0000
      3  CD1       -7.1340   -2.5660   -4.3750 C.3    17  LEU17       0.0000
      4  CD2       -6.7590   -4.0120   -2.4400 C.3    17  LEU17       0.0000
      5  CB        -9.1330   -0.1140   -0.3870 C.3    18  ASP18       0.1258
      6  CG       -10.5190    0.2590    0.1090 C.2    18  ASP18       0.3654
      7  OD1      -10.6870    0.1950    1.3500 O.co2  18  ASP18      -0.2456
      8  OD2      -11.3630    0.6190   -0.7170 O.co2  18  ASP18      -0.2456
      9  CB        -6.2400    2.6510    3.3830 C.3    19  ILE19       0.0000
     10  CG2       -4.8340    2.1790    3.0100 C.3    19  ILE19       0.0000
     11  CG1       -6.1590    3.8270    4.4510 C.3    19  ILE19       0.0000
     12  CD1       -6.2900    3.2210    5.8430 C.3    19  ILE19       0.0000
     13  CB        -3.7050    5.8140    0.2540 C.3    20  ILE20       0.0000
     14  CG2       -4.0800    6.7630    1.4120 C.3    20  ILE20       0.0000
     15  CG1       -2.4080    5.0920    0.7870 C.3    20  ILE20       0.0000
     16  CD1       -1.5810    4.4340   -0.3390 C.3    20  ILE20       0.0000
     17  CB        -4.5040    4.7650   -4.9540 C.3    21  TRP21       0.0066
     18  CG        -4.1660    4.1700   -6.3060 C.3    21  TRP21       0.0452
     19  CD1       -3.6480    4.8090   -7.4240 C.3    21  TRP21       0.1165
     20  NE1       -3.6150    3.9660   -8.5310 N.pl3  21  TRP21      -0.2376
     21  CE2       -4.2200    2.7770   -8.1780 C.ar   21  TRP21       0.0614
     22  CZ2       -4.3080    1.5720   -8.8160 C.ar   21  TRP21       0.0158
     23  CH2       -5.0040    0.4940   -8.2370 C.ar   21  TRP21       0.0013
     24  CZ3       -5.4670    0.6240   -6.9110 C.ar   21  TRP21      -0.0002
     25  CE3       -5.3310    1.8220   -6.2160 C.ar   21  TRP21      -0.0030
     26  CD2       -4.6430    2.8870   -6.8160 C.ar   21  TRP21      -0.0059
@<TRIPOS>BOND
     1    22    23   ar
     2    22    21   ar
     3    23    24   ar
     4    21    20    1
     5    21    26   ar
     6    24    25   ar
     7    20    19    1
     8    25    26   ar
     9    26    18    1
    10    19    18    1
    11    18    17    1
    12     3     2    1
    13     2     4    1
    14     2     1    1
    15     5     6    1
    16     7     6   ar
    17    13    15    1
    18    13    14    1
    19    15    16    1
    20     6     8   ar
    21     9    11    1
    22     9    10    1
    23    11    12    1
@<TRIPOS>MOLECULE
9843631
 28 31 0 0 0
SMALL
GASTEIGER

@<TRIPOS>ATOM
      1 S          -8.6400    1.9719   -6.0916 S.O2    1  LIG11       0.0752
      2 O         -10.2114    0.6298   -3.7270 O.2     1  LIG11      -0.3377
      3 O          -9.7989    2.7426   -5.6861 O.2     1  LIG11      -0.1499
      4 O          -8.1405    2.0698   -7.4443 O.2     1  LIG11      -0.1499
      5 O          -4.2822   -0.5784  -10.9786 O.2     1  LIG11      -0.4436
      6 N          -8.9227    0.3272   -5.7956 N.pl3   1  LIG11      -0.1831
      7 N         -10.2294    0.1280   -2.4425 N.ar    1  LIG11      -0.0810
      8 N          -2.7964    1.1210  -11.0481 N.ar    1  LIG11      -0.2175
      9 C          -7.3016    2.3158   -4.9452 C.ar    1  LIG11       0.1162
     10 C          -5.9437    2.0788   -5.2463 C.ar    1  LIG11       0.0087
     11 C          -5.4074    1.6486   -6.5490 C.ar    1  LIG11      -0.0160
     12 C          -7.6796    2.8159   -3.6828 C.ar    1  LIG11      -0.0345
     13 C          -9.2370    0.0155   -4.4500 C.ar    1  LIG11       0.2399
     14 C          -5.0057    2.3146   -4.2161 C.ar    1  LIG11      -0.0521
     15 C          -8.5880   -0.9042   -3.6518 C.ar    1  LIG11       0.0350
     16 C          -4.6564    2.5501   -7.3216 C.ar    1  LIG11      -0.0533
     17 C          -5.5617    0.3430   -7.0340 C.ar    1  LIG11      -0.0533
     18 C          -6.7273    3.0374   -2.6920 C.ar    1  LIG11      -0.0599
     19 C          -5.3898    2.7787   -2.9559 C.ar    1  LIG11      -0.0611
     20 C          -4.3080    0.8799   -9.0557 C.ar    1  LIG11       0.0369
     21 C          -9.2511   -0.7816   -2.3954 C.ar    1  LIG11       0.0854
     22 C          -4.1052    2.1683   -8.5494 C.ar    1  LIG11      -0.0489
     23 C          -5.0415   -0.0296   -8.2825 C.ar    1  LIG11      -0.0489
     24 C          -7.4060   -1.7392   -3.9605 C.3     1  LIG11      -0.0330
     25 C          -8.9548   -1.4669   -1.1147 C.3     1  LIG11      -0.0188
     26 C          -3.7462    0.5201  -10.3539 C.ar    1  LIG11       0.2271
     27 C          -3.6109   -0.6491  -12.1613 C.ar    1  LIG11       0.1125
     28 C          -2.7014    0.3761  -12.1954 C.ar    1  LIG11       0.0663
@<TRIPOS>BOND
     1     1     3    2
     2     1     4    2
     3     1     6    1
     4     1     9    1
     5     2     7   ar
     6     2    13   ar
     7     5    26   ar
     8     5    27   ar
     9     6    13    1
    10     7    21   ar
    11     8    26   ar
    12     8    28   ar
    13     9    10   ar
    14     9    12   ar
    15    10    11    1
    16    10    14   ar
    17    11    16   ar
    18    11    17   ar
    19    12    18   ar
    20    13    15   ar
    21    14    19   ar
    22    15    21   ar
    23    15    24    1
    24    16    22   ar
    25    17    23   ar
    26    18    19   ar
    27    20    22   ar
    28    20    23   ar
    29    20    26    1
    30    21    25    1
    31    27    28   ar
@<TRIPOS>MOLECULE
../ET1/ET1_17-21_50CONFORMERS.pdb
 47 48 0 0 0
SMALL
GASTEIGER

@<TRIPOS>ATOM
      1  N         -4.1620    0.1770   -2.2540 N.3    17  LEU17      -0.1231
      2  CA        -5.3890   -0.3930   -2.7840 C.3    17  LEU17       0.1693
      3  CB        -5.5600   -1.8760   -2.4960 C.3    17  LEU17       0.0284
      4  CG        -6.8600   -2.5850   -2.8960 C.3    17  LEU17       0.0019
      5  CD1       -7.1340   -2.5660   -4.3750 C.3    17  LEU17       0.0001
      6  CD2       -6.7590   -4.0120   -2.4400 C.3    17  LEU17       0.0001
      7  C         -6.6340    0.5790   -2.5340 C.2    17  LEU17       0.2592
      8  O         -7.2520    0.9240   -3.5380 O.2    17  LEU17      -0.2718
      9  N         -7.0610    0.7170   -1.3030 N.am   18  ASP18      -0.1960
     10  CA        -8.3850    1.1220   -0.9340 C.3    18  ASP18       0.1840
     11  CB        -9.1330   -0.1140   -0.3870 C.3    18  ASP18       0.1450
     12  CG       -10.5190    0.2590    0.1090 C.2    18  ASP18       0.3671
     13  OD1      -10.6870    0.1950    1.3500 O.co2  18  ASP18      -0.2456
     14  OD2      -11.3630    0.6190   -0.7170 O.co2  18  ASP18      -0.2456
     15  C         -8.1950    2.3170    0.0710 C.2    18  ASP18       0.2622
     16  O         -8.8070    3.3530   -0.1690 O.2    18  ASP18      -0.2715
     17  N         -7.4680    2.0920    1.1690 N.am   19  ILE19      -0.1963
     18  CA        -7.1440    3.1470    2.1900 C.3    19  ILE19       0.1727
     19  CB        -6.2400    2.6510    3.3830 C.3    19  ILE19       0.0290
     20  CG2       -4.8340    2.1790    3.0100 C.3    19  ILE19       0.0023
     21  CG1       -6.1590    3.8270    4.4510 C.3    19  ILE19       0.0022
     22  CD1       -6.2900    3.2210    5.8430 C.3    19  ILE19       0.0001
     23  C         -6.5590    4.2680    1.3570 C.2    19  ILE19       0.2616
     24  O         -7.1230    5.3880    1.3430 O.2    19  ILE19      -0.2715
     25  N         -5.4440    4.0380    0.5930 N.am   20  ILE20      -0.1963
     26  CA        -4.8730    4.9550   -0.3770 C.3    20  ILE20       0.1727
     27  CB        -3.7050    5.8140    0.2540 C.3    20  ILE20       0.0290
     28  CG2       -4.0800    6.7630    1.4120 C.3    20  ILE20       0.0023
     29  CG1       -2.4080    5.0920    0.7870 C.3    20  ILE20       0.0022
     30  CD1       -1.5810    4.4340   -0.3390 C.3    20  ILE20       0.0001
     31  C         -4.5500    4.2860   -1.6860 C.2    20  ILE20       0.2617
     32  O         -4.6770    3.1090   -1.8670 O.2    20  ILE20      -0.2715
     33  N         -4.0000    5.0300   -2.6580 N.am   21  TRP21      -0.1941
     34  CA        -3.4560    4.6010   -3.9210 C.3    21  TRP21       0.1982
     35  CB        -4.5040    4.7650   -4.9540 C.3    21  TRP21       0.0394
     36  CG        -4.1660    4.1700   -6.3060 C.3    21  TRP21       0.0475
     37  CD1       -3.6480    4.8090   -7.4240 C.3    21  TRP21       0.1166
     38  NE1       -3.6150    3.9660   -8.5310 N.pl3  21  TRP21      -0.2376
     39  CE2       -4.2200    2.7770   -8.1780 C.ar   21  TRP21       0.0614
     40  CZ2       -4.3080    1.5720   -8.8160 C.ar   21  TRP21       0.0158
     41  CH2       -5.0040    0.4940   -8.2370 C.ar   21  TRP21       0.0013
     42  CZ3       -5.4670    0.6240   -6.9110 C.ar   21  TRP21      -0.0002
     43  CE3       -5.3310    1.8220   -6.2160 C.ar   21  TRP21      -0.0030
     44  CD2       -4.6430    2.8870   -6.8160 C.ar   21  TRP21      -0.0059
     45  C         -2.1620    5.4310   -4.2590 C.2    21  TRP21       0.3842
     46  O         -2.1260    6.6300   -4.0970 O.co2  21  TRP21      -0.2437
     47  OXT       -1.2210    4.8480   -4.8090 O.co2  21  TRP21      -0.2437
@<TRIPOS>BOND
     1    40    41   ar
     2    40    39   ar
     3    41    42   ar
     4    39    38    1
     5    39    44   ar
     6    42    43   ar
     7    38    37    1
     8    43    44   ar
     9    44    36    1
    10    37    36    1
    11    36    35    1
    12    47    45   ar
    13     5     4    1
    14    35    34    1
    15    45    34    1
    16    45    46   ar
    17    34    33    1
    18     8     7    2
    19     4     6    1
    20     4     3    1
    21     2     3    1
    22     2     1    1
    23     2     7    1
    24     7     9   am
    25    33    31   am
    26    32    31    2
    27    31    26    1
    28     9    10    1
    29    10    11    1
    30    10    15    1
    31    26    27    1
    32    26    25    1
    33    11    12    1
    34    13    12   ar
    35    27    29    1
    36    27    28    1
    37    29    30    1
    38    16    15    2
    39    15    17   am
    40    12    14   ar
    41    25    23   am
    42    17    18    1
    43    23    24    2
    44    23    18    1
    45    18    19    1
    46    19    21    1
    47    19    20    1
    48    21    22    1
