@<TRIPOS>MOLECULE
../ET1/ET1_17-21_50CONFORMERS_NOBACKBONE.pdb
 26 23 0 0 0
SMALL
GASTEIGER

@<TRIPOS>ATOM
      1  CB        -6.3910   -1.9050   -1.9340 C.3    17  LEU17       0.0000
      2  CG        -7.7230   -2.6120   -2.2650 C.3    17  LEU17       0.0000
      3  CD1       -8.2730   -2.2630   -3.6560 C.3    17  LEU17       0.0000
      4  CD2       -7.7160   -4.1570   -2.1830 C.3    17  LEU17       0.0000
      5  CB        -9.2330   -0.0320    1.6400 C.3    18  ASP18       0.1258
      6  CG       -10.4980    0.4460    2.4050 C.2    18  ASP18       0.3654
      7  OD1      -10.5950    0.2460    3.6430 O.co2  18  ASP18      -0.2456
      8  OD2      -11.3710    0.9240    1.6290 O.co2  18  ASP18      -0.2456
      9  CB        -5.7490    3.0740    3.3650 C.3    19  ILE19       0.0000
     10  CG2       -5.2510    4.1420    4.3270 C.3    19  ILE19       0.0000
     11  CG1       -6.1550    1.8390    4.1720 C.3    19  ILE19       0.0000
     12  CD1       -7.4850    2.0290    4.9680 C.3    19  ILE19       0.0000
     13  CB        -3.2800    5.5690   -0.0490 C.3    20  ILE20       0.0000
     14  CG2       -3.1480    5.8930    1.4700 C.3    20  ILE20       0.0000
     15  CG1       -2.1370    4.6340   -0.4900 C.3    20  ILE20       0.0000
     16  CD1       -0.6390    5.0750   -0.2490 C.3    20  ILE20       0.0000
     17  CB        -6.3680    6.2230   -4.3030 C.3    21  TRP21       0.0066
     18  CG        -7.3580    5.9950   -3.2070 C.3    21  TRP21       0.0452
     19  CD1       -7.7570    4.8500   -2.5760 C.3    21  TRP21       0.1165
     20  NE1       -8.5940    5.1820   -1.5620 N.pl3  21  TRP21      -0.2376
     21  CE2       -8.8900    6.5050   -1.5260 C.ar   21  TRP21       0.0614
     22  CZ2       -9.6920    7.2470   -0.6340 C.ar   21  TRP21       0.0158
     23  CH2       -9.7970    8.6640   -0.7850 C.ar   21  TRP21       0.0013
     24  CZ3       -9.2120    9.2710   -1.9250 C.ar   21  TRP21      -0.0002
     25  CE3       -8.3150    8.4870   -2.7810 C.ar   21  TRP21      -0.0030
     26  CD2       -8.0900    7.0900   -2.5680 C.ar   21  TRP21      -0.0059
@<TRIPOS>BOND
     1    22    23   ar
     2    22    21   ar
     3    23    24   ar
     4    21    20    1
     5    21    26   ar
     6    24    25   ar
     7    20    19    1
     8    25    26   ar
     9    26    18    1
    10    19    18    1
    11    18    17    1
    12     3     2    1
    13     2     4    1
    14     2     1    1
    15     5     6    1
    16     7     6   ar
    17    13    15    1
    18    13    14    1
    19    15    16    1
    20     6     8   ar
    21     9    11    1
    22     9    10    1
    23    11    12    1
@<TRIPOS>MOLECULE
159594
 37 40 0 0 0
SMALL
GASTEIGER

@<TRIPOS>ATOM
      1 O          -5.2957    5.3333   -4.5853 O.co2   1  LIG11      -0.5493
      2 O          -7.0069    4.5587   -5.8847 O.co2   1  LIG11      -0.5493
      3 O          -8.4729   10.9457   -1.2169 O.3     1  LIG11      -0.4526
      4 O          -6.9278    4.6974    1.2038 O.2     1  LIG11      -0.2697
      5 O         -10.7206   10.2171   -0.7336 O.3     1  LIG11      -0.4526
      6 O         -10.8700   -0.2556   -3.2125 O.3     1  LIG11      -0.4951
      7 N          -6.8371    4.5742   -1.5266 N.3     1  LIG11       0.2481
      8 N          -4.7955    3.8711    1.5316 N.am    1  LIG11      -0.2971
      9 C          -7.4796    5.3198   -3.7170 C.3     1  LIG11       0.0574
     10 C          -7.0272    6.5322   -2.8957 C.3     1  LIG11       0.0378
     11 C          -7.1370    4.0575   -2.9234 C.3     1  LIG11       0.0143
     12 C          -6.1951    5.9235   -1.7686 C.3     1  LIG11      -0.0230
     13 C          -8.1025    7.4444   -2.3214 C.ar    1  LIG11      -0.0347
     14 C          -8.1775    2.9527   -2.9917 C.ar    1  LIG11       0.0011
     15 C          -5.9678    3.6498   -0.7013 C.3     1  LIG11       0.0468
     16 C          -6.5049    5.0822   -4.8627 C.2     1  LIG11       0.0513
     17 C          -7.7339    8.7802   -2.0491 C.ar    1  LIG11      -0.0125
     18 C          -5.9306    4.1147    0.7626 C.2     1  LIG11       0.2608
     19 C          -9.4188    7.0286   -2.0290 C.ar    1  LIG11      -0.0544
     20 C          -8.0381    1.9934   -4.0133 C.ar    1  LIG11      -0.0498
     21 C          -9.2571    2.8195   -2.1115 C.ar    1  LIG11      -0.0498
     22 C          -8.6741    9.6362   -1.5193 C.ar    1  LIG11       0.1665
     23 C         -10.3519    7.9221   -1.4844 C.ar    1  LIG11      -0.0159
     24 C          -9.9502    9.2194   -1.2436 C.ar    1  LIG11       0.1662
     25 C          -8.9131    0.9101   -4.1280 C.ar    1  LIG11      -0.0195
     26 C         -10.1335    1.7309   -2.2298 C.ar    1  LIG11      -0.0195
     27 C          -4.7672    4.3941    2.9049 C.3     1  LIG11       0.0148
     28 C          -3.4853    3.5702    0.9365 C.3     1  LIG11       0.0148
     29 C          -9.9589    0.7643   -3.2241 C.ar    1  LIG11       0.1201
     30 C          -5.8173    3.8067    3.8543 C.3     1  LIG11      -0.0374
     31 C          -2.7811    4.8531    0.4837 C.3     1  LIG11      -0.0374
     32 C          -9.7911   11.3220   -0.7686 C.3     1  LIG11       0.2332
     33 C          -5.7649    2.2822    3.9483 C.3     1  LIG11      -0.0545
     34 C          -1.4933    4.5654   -0.2831 C.3     1  LIG11      -0.0545
     35 C          -6.7856    1.7631    4.9504 C.3     1  LIG11      -0.0652
     36 C          -0.7612    5.8542   -0.6273 C.3     1  LIG11      -0.0652
     37 C         -10.6503   -1.3164   -4.1371 C.3     1  LIG11       0.0788
@<TRIPOS>BOND
     1     1    16   ar
     2     2    16   ar
     3     3    22    1
     4     3    32    1
     5     4    18    2
     6     5    24    1
     7     5    32    1
     8     6    29    1
     9     6    37    1
    10     7    11    1
    11     7    12    1
    12     7    15    1
    13     8    18   am
    14     8    27    1
    15     8    28    1
    16     9    10    1
    17     9    11    1
    18     9    16    1
    19    10    12    1
    20    10    13    1
    21    11    14    1
    22    13    17   ar
    23    13    19   ar
    24    14    20   ar
    25    14    21   ar
    26    15    18    1
    27    17    22   ar
    28    19    23   ar
    29    20    25   ar
    30    21    26   ar
    31    22    24   ar
    32    23    24   ar
    33    25    29   ar
    34    26    29   ar
    35    27    30    1
    36    28    31    1
    37    30    33    1
    38    31    34    1
    39    33    35    1
    40    34    36    1
@<TRIPOS>MOLECULE
../ET1/ET1_17-21_50CONFORMERS.pdb
 47 48 0 0 0
SMALL
GASTEIGER

@<TRIPOS>ATOM
      1  N         -4.9640    0.1120   -1.6680 N.3    17  LEU17      -0.1231
      2  CA        -6.2390   -0.4320   -2.1890 C.3    17  LEU17       0.1693
      3  CB        -6.3910   -1.9050   -1.9340 C.3    17  LEU17       0.0284
      4  CG        -7.7230   -2.6120   -2.2650 C.3    17  LEU17       0.0019
      5  CD1       -8.2730   -2.2630   -3.6560 C.3    17  LEU17       0.0001
      6  CD2       -7.7160   -4.1570   -2.1830 C.3    17  LEU17       0.0001
      7  C         -7.3800    0.4070   -1.5850 C.2    17  LEU17       0.2592
      8  O         -7.9120    1.2710   -2.2900 O.2    17  LEU17      -0.2718
      9  N         -7.7550    0.1670   -0.3430 N.am   18  ASP18      -0.1960
     10  CA        -8.8100    0.8290    0.3870 C.3    18  ASP18       0.1840
     11  CB        -9.2330   -0.0320    1.6400 C.3    18  ASP18       0.1450
     12  CG       -10.4980    0.4460    2.4050 C.2    18  ASP18       0.3671
     13  OD1      -10.5950    0.2460    3.6430 O.co2  18  ASP18      -0.2456
     14  OD2      -11.3710    0.9240    1.6290 O.co2  18  ASP18      -0.2456
     15  C         -8.4130    2.3140    0.8710 C.2    18  ASP18       0.2622
     16  O         -9.1560    3.2690    0.6980 O.2    18  ASP18      -0.2715
     17  N         -7.2450    2.3300    1.6170 N.am   19  ILE19      -0.1963
     18  CA        -6.8060    3.4950    2.3580 C.3    19  ILE19       0.1727
     19  CB        -5.7490    3.0740    3.3650 C.3    19  ILE19       0.0290
     20  CG2       -5.2510    4.1420    4.3270 C.3    19  ILE19       0.0023
     21  CG1       -6.1550    1.8390    4.1720 C.3    19  ILE19       0.0022
     22  CD1       -7.4850    2.0290    4.9680 C.3    19  ILE19       0.0001
     23  C         -6.2620    4.6560    1.4180 C.2    19  ILE19       0.2616
     24  O         -6.6680    5.8080    1.5430 O.2    19  ILE19      -0.2715
     25  N         -5.3940    4.3010    0.4200 N.am   20  ILE20      -0.1963
     26  CA        -4.7490    5.1850   -0.4700 C.3    20  ILE20       0.1727
     27  CB        -3.2800    5.5690   -0.0490 C.3    20  ILE20       0.0290
     28  CG2       -3.1480    5.8930    1.4700 C.3    20  ILE20       0.0023
     29  CG1       -2.1370    4.6340   -0.4900 C.3    20  ILE20       0.0022
     30  CD1       -0.6390    5.0750   -0.2490 C.3    20  ILE20       0.0001
     31  C         -4.7650    4.7450   -1.9840 C.2    20  ILE20       0.2617
     32  O         -4.9690    3.5790   -2.2750 O.2    20  ILE20      -0.2715
     33  N         -4.4580    5.6790   -2.8610 N.am   21  TRP21      -0.1941
     34  CA        -4.9420    5.6080   -4.2670 C.3    21  TRP21       0.1982
     35  CB        -6.3680    6.2230   -4.3030 C.3    21  TRP21       0.0394
     36  CG        -7.3580    5.9950   -3.2070 C.3    21  TRP21       0.0475
     37  CD1       -7.7570    4.8500   -2.5760 C.3    21  TRP21       0.1166
     38  NE1       -8.5940    5.1820   -1.5620 N.pl3  21  TRP21      -0.2376
     39  CE2       -8.8900    6.5050   -1.5260 C.ar   21  TRP21       0.0614
     40  CZ2       -9.6920    7.2470   -0.6340 C.ar   21  TRP21       0.0158
     41  CH2       -9.7970    8.6640   -0.7850 C.ar   21  TRP21       0.0013
     42  CZ3       -9.2120    9.2710   -1.9250 C.ar   21  TRP21      -0.0002
     43  CE3       -8.3150    8.4870   -2.7810 C.ar   21  TRP21      -0.0030
     44  CD2       -8.0900    7.0900   -2.5680 C.ar   21  TRP21      -0.0059
     45  C         -4.0680    6.2830   -5.3280 C.2    21  TRP21       0.3842
     46  O         -3.1480    7.0600   -4.9760 O.co2  21  TRP21      -0.2437
     47  OXT       -4.2370    6.0120   -6.5200 O.co2  21  TRP21      -0.2437
@<TRIPOS>BOND
     1    40    41   ar
     2    40    39   ar
     3    41    42   ar
     4    39    38    1
     5    39    44   ar
     6    42    43   ar
     7    38    37    1
     8    43    44   ar
     9    44    36    1
    10    37    36    1
    11    36    35    1
    12    47    45   ar
    13     5     4    1
    14    35    34    1
    15    45    34    1
    16    45    46   ar
    17    34    33    1
    18     8     7    2
    19     4     6    1
    20     4     3    1
    21     2     3    1
    22     2     1    1
    23     2     7    1
    24     7     9   am
    25    33    31   am
    26    32    31    2
    27    31    26    1
    28     9    10    1
    29    10    11    1
    30    10    15    1
    31    26    27    1
    32    26    25    1
    33    11    12    1
    34    13    12   ar
    35    27    29    1
    36    27    28    1
    37    29    30    1
    38    16    15    2
    39    15    17   am
    40    12    14   ar
    41    25    23   am
    42    17    18    1
    43    23    24    2
    44    23    18    1
    45    18    19    1
    46    19    21    1
    47    19    20    1
    48    21    22    1
