@<TRIPOS>MOLECULE
../ET1/ET1_17-21_50CONFORMERS_NOBACKBONE.pdb
 26 23 0 0 0
SMALL
GASTEIGER

@<TRIPOS>ATOM
      1  CB        -6.3700   -1.7240   -1.0650 C.3    17  LEU17       0.0000
      2  CG        -7.6800   -2.5150   -1.4070 C.3    17  LEU17       0.0000
      3  CD1       -7.7720   -3.0040   -2.8110 C.3    17  LEU17       0.0000
      4  CD2       -7.9130   -3.7120   -0.4330 C.3    17  LEU17       0.0000
      5  CB        -9.3250    1.8040    0.0230 C.3    18  ASP18       0.1258
      6  CG       -10.4490    2.8760    0.1640 C.2    18  ASP18       0.3654
      7  OD1      -10.3660    3.7280    1.0360 O.co2  18  ASP18      -0.2456
      8  OD2      -11.3160    2.9200   -0.7650 O.co2  18  ASP18      -0.2456
      9  CB        -5.5190    4.6730    2.8600 C.3    19  ILE19       0.0000
     10  CG2       -4.2740    3.6900    2.8780 C.3    19  ILE19       0.0000
     11  CG1       -5.3070    6.0690    3.5040 C.3    19  ILE19       0.0000
     12  CD1       -5.2930    6.0250    5.0400 C.3    19  ILE19       0.0000
     13  CB        -1.9130    5.2240   -1.1980 C.3    20  ILE20       0.0000
     14  CG2       -1.5820    6.4010   -0.2490 C.3    20  ILE20       0.0000
     15  CG1       -1.5350    3.9480   -0.3450 C.3    20  ILE20       0.0000
     16  CD1       -0.0560    3.7320   -0.0390 C.3    20  ILE20       0.0000
     17  CB        -5.1730    4.4740   -5.6410 C.3    21  TRP21       0.0066
     18  CG        -5.4760    3.6370   -6.8280 C.3    21  TRP21       0.0452
     19  CD1       -5.3840    4.0190   -8.1420 C.3    21  TRP21       0.1165
     20  NE1       -5.8470    2.9720   -8.9090 N.pl3  21  TRP21      -0.2376
     21  CE2       -5.9380    1.8220   -8.2000 C.ar   21  TRP21       0.0614
     22  CZ2       -5.9550    0.4600   -8.6010 C.ar   21  TRP21       0.0158
     23  CH2       -6.0020   -0.5440   -7.5800 C.ar   21  TRP21       0.0013
     24  CZ3       -6.0200   -0.1340   -6.2320 C.ar   21  TRP21      -0.0002
     25  CE3       -5.9020    1.1770   -5.8910 C.ar   21  TRP21      -0.0030
     26  CD2       -5.8730    2.1930   -6.8510 C.ar   21  TRP21      -0.0059
@<TRIPOS>BOND
     1    22    23   ar
     2    22    21   ar
     3    23    24   ar
     4    21    20    1
     5    21    26   ar
     6    24    25   ar
     7    20    19    1
     8    25    26   ar
     9    26    18    1
    10    19    18    1
    11    18    17    1
    12     3     2    1
    13     2     4    1
    14     2     1    1
    15     5     6    1
    16     7     6   ar
    17    13    15    1
    18    13    14    1
    19    15    16    1
    20     6     8   ar
    21     9    11    1
    22     9    10    1
    23    11    12    1
@<TRIPOS>MOLECULE
9911482
 30 32 0 0 0
SMALL
GASTEIGER

@<TRIPOS>ATOM
      1 S          -5.4076    4.3115   -1.3210 S.O2    1  LIG11       0.0758
      2 S          -9.1156    4.0944   -3.4167 S.2     1  LIG11      -0.0902
      3 O          -3.5500    2.6311   -3.7973 O.2     1  LIG11      -0.3377
      4 O          -5.2741    2.9945   -0.7526 O.2     1  LIG11      -0.1499
      5 O          -5.3033    5.4911   -0.4828 O.2     1  LIG11      -0.1499
      6 O          -6.1287    1.7412   -3.1193 O.2     1  LIG11      -0.2692
      7 O          -6.6104    3.9046   -8.5561 O.2     1  LIG11      -0.2923
      8 N          -7.1487    2.4720   -5.0545 N.am    1  LIG11      -0.2802
      9 N          -4.3119    4.6172   -2.5845 N.pl3   1  LIG11      -0.1831
     10 N          -2.4492    1.8000   -3.8410 N.ar    1  LIG11      -0.0810
     11 C          -6.5571    1.5667   -5.9720 C.ar    1  LIG11       0.0471
     12 C          -7.0209    4.4014   -1.9634 C.ar    1  LIG11       0.1277
     13 C          -6.5076    0.1751   -5.7471 C.ar    1  LIG11      -0.0283
     14 C          -6.0826    2.0624   -7.2054 C.ar    1  LIG11       0.0388
     15 C          -7.5145    3.6257   -2.9979 C.ar    1  LIG11       0.1007
     16 C          -5.4409   -0.1584   -7.9345 C.ar    1  LIG11      -0.0494
     17 C          -5.9157   -0.6606   -6.7192 C.ar    1  LIG11      -0.0541
     18 C          -5.5405    1.2103   -8.1777 C.ar    1  LIG11      -0.0466
     19 C          -6.8832    2.5137   -3.6925 C.2     1  LIG11       0.2568
     20 C          -3.3992    3.5460   -2.8043 C.ar    1  LIG11       0.2399
     21 C          -7.9851    5.3536   -1.4962 C.ar    1  LIG11      -0.0273
     22 C          -2.1909    3.3401   -2.1720 C.ar    1  LIG11       0.0350
     23 C          -7.0979   -0.5120   -4.5433 C.3     1  LIG11      -0.0379
     24 C          -6.0607    3.5071   -7.5327 C.2     1  LIG11       0.1619
     25 C          -1.6521    2.2077   -2.8488 C.ar    1  LIG11       0.0854
     26 C          -9.1666    5.2865   -2.1976 C.ar    1  LIG11      -0.0217
     27 C          -4.8230   -1.0638   -8.9581 C.3     1  LIG11      -0.0397
     28 C          -1.5844    4.0663   -1.0337 C.3     1  LIG11      -0.0330
     29 C          -0.3793    1.4977   -2.5816 C.3     1  LIG11      -0.0188
     30 C          -5.3431    4.4430   -6.5959 C.3     1  LIG11      -0.0013
@<TRIPOS>BOND
     1     1     4    2
     2     1     5    2
     3     1     9    1
     4     1    12    1
     5     2    15   ar
     6     2    26   ar
     7     3    10   ar
     8     3    20   ar
     9     6    19    2
    10     7    24    2
    11     8    11    1
    12     8    19   am
    13     9    20    1
    14    10    25   ar
    15    11    13   ar
    16    11    14   ar
    17    12    15   ar
    18    12    21   ar
    19    13    17   ar
    20    13    23    1
    21    14    18   ar
    22    14    24    1
    23    15    19    1
    24    16    17   ar
    25    16    18   ar
    26    16    27    1
    27    20    22   ar
    28    21    26   ar
    29    22    25   ar
    30    22    28    1
    31    24    30    1
    32    25    29    1
@<TRIPOS>MOLECULE
../ET1/ET1_17-21_50CONFORMERS.pdb
 47 48 0 0 0
SMALL
GASTEIGER

@<TRIPOS>ATOM
      1  N         -4.6780   -0.0850   -1.5830 N.3    17  LEU17      -0.1231
      2  CA        -5.9780   -0.5970   -2.0100 C.3    17  LEU17       0.1693
      3  CB        -6.3700   -1.7240   -1.0650 C.3    17  LEU17       0.0284
      4  CG        -7.6800   -2.5150   -1.4070 C.3    17  LEU17       0.0019
      5  CD1       -7.7720   -3.0040   -2.8110 C.3    17  LEU17       0.0001
      6  CD2       -7.9130   -3.7120   -0.4330 C.3    17  LEU17       0.0001
      7  C         -6.9780    0.5450   -2.0500 C.2    17  LEU17       0.2592
      8  O         -7.6980    0.7820   -3.0610 O.2    17  LEU17      -0.2718
      9  N         -7.1080    1.2870   -0.9420 N.am   18  ASP18      -0.1960
     10  CA        -8.1380    2.3590   -0.8440 C.3    18  ASP18       0.1840
     11  CB        -9.3250    1.8040    0.0230 C.3    18  ASP18       0.1450
     12  CG       -10.4490    2.8760    0.1640 C.2    18  ASP18       0.3671
     13  OD1      -10.3660    3.7280    1.0360 O.co2  18  ASP18      -0.2456
     14  OD2      -11.3160    2.9200   -0.7650 O.co2  18  ASP18      -0.2456
     15  C         -7.5340    3.6670   -0.2750 C.2    18  ASP18       0.2622
     16  O         -7.8930    4.7610   -0.7510 O.2    18  ASP18      -0.2715
     17  N         -6.6260    3.5880    0.7760 N.am   19  ILE19      -0.1963
     18  CA        -6.0950    4.8210    1.4140 C.3    19  ILE19       0.1727
     19  CB        -5.5190    4.6730    2.8600 C.3    19  ILE19       0.0290
     20  CG2       -4.2740    3.6900    2.8780 C.3    19  ILE19       0.0023
     21  CG1       -5.3070    6.0690    3.5040 C.3    19  ILE19       0.0022
     22  CD1       -5.2930    6.0250    5.0400 C.3    19  ILE19       0.0001
     23  C         -5.0210    5.5530    0.4810 C.2    19  ILE19       0.2616
     24  O         -4.9020    6.7360    0.5180 O.2    19  ILE19      -0.2715
     25  N         -4.2770    4.7900   -0.3470 N.am   20  ILE20      -0.1963
     26  CA        -3.4430    5.2460   -1.5010 C.3    20  ILE20       0.1727
     27  CB        -1.9130    5.2240   -1.1980 C.3    20  ILE20       0.0290
     28  CG2       -1.5820    6.4010   -0.2490 C.3    20  ILE20       0.0023
     29  CG1       -1.5350    3.9480   -0.3450 C.3    20  ILE20       0.0022
     30  CD1       -0.0560    3.7320   -0.0390 C.3    20  ILE20       0.0001
     31  C         -3.6450    4.4150   -2.7420 C.2    20  ILE20       0.2617
     32  O         -4.0330    3.2650   -2.5870 O.2    20  ILE20      -0.2715
     33  N         -3.5090    4.9890   -3.9190 N.am   21  TRP21      -0.1941
     34  CA        -3.7490    4.4630   -5.2570 C.3    21  TRP21       0.1982
     35  CB        -5.1730    4.4740   -5.6410 C.3    21  TRP21       0.0394
     36  CG        -5.4760    3.6370   -6.8280 C.3    21  TRP21       0.0475
     37  CD1       -5.3840    4.0190   -8.1420 C.3    21  TRP21       0.1166
     38  NE1       -5.8470    2.9720   -8.9090 N.pl3  21  TRP21      -0.2376
     39  CE2       -5.9380    1.8220   -8.2000 C.ar   21  TRP21       0.0614
     40  CZ2       -5.9550    0.4600   -8.6010 C.ar   21  TRP21       0.0158
     41  CH2       -6.0020   -0.5440   -7.5800 C.ar   21  TRP21       0.0013
     42  CZ3       -6.0200   -0.1340   -6.2320 C.ar   21  TRP21      -0.0002
     43  CE3       -5.9020    1.1770   -5.8910 C.ar   21  TRP21      -0.0030
     44  CD2       -5.8730    2.1930   -6.8510 C.ar   21  TRP21      -0.0059
     45  C         -2.9100    5.2210   -6.2490 C.2    21  TRP21       0.3842
     46  O         -2.9870    6.4280   -6.3610 O.co2  21  TRP21      -0.2437
     47  OXT       -1.9860    4.5890   -6.8430 O.co2  21  TRP21      -0.2437
@<TRIPOS>BOND
     1    40    41   ar
     2    40    39   ar
     3    41    42   ar
     4    39    38    1
     5    39    44   ar
     6    42    43   ar
     7    38    37    1
     8    43    44   ar
     9    44    36    1
    10    37    36    1
    11    36    35    1
    12    47    45   ar
    13     5     4    1
    14    35    34    1
    15    45    34    1
    16    45    46   ar
    17    34    33    1
    18     8     7    2
    19     4     6    1
    20     4     3    1
    21     2     3    1
    22     2     1    1
    23     2     7    1
    24     7     9   am
    25    33    31   am
    26    32    31    2
    27    31    26    1
    28     9    10    1
    29    10    11    1
    30    10    15    1
    31    26    27    1
    32    26    25    1
    33    11    12    1
    34    13    12   ar
    35    27    29    1
    36    27    28    1
    37    29    30    1
    38    16    15    2
    39    15    17   am
    40    12    14   ar
    41    25    23   am
    42    17    18    1
    43    23    24    2
    44    23    18    1
    45    18    19    1
    46    19    21    1
    47    19    20    1
    48    21    22    1
