@<TRIPOS>MOLECULE
../ET1/ET1_17-21_50CONFORMERS_NOBACKBONE.pdb
 26 23 0 0 0
SMALL
GASTEIGER

@<TRIPOS>ATOM
      1  CB        -6.3140   -1.7030   -1.0200 C.3    17  LEU17       0.0000
      2  CG        -7.7120   -2.3290   -1.2350 C.3    17  LEU17       0.0000
      3  CD1       -7.8370   -2.7490   -2.7140 C.3    17  LEU17       0.0000
      4  CD2       -7.9870   -3.4570   -0.2360 C.3    17  LEU17       0.0000
      5  CB        -9.1000    1.3640    0.7210 C.3    18  ASP18       0.1258
      6  CG       -10.3480    2.1540    1.2570 C.2    18  ASP18       0.3654
      7  OD1      -11.2810    2.3270    0.4800 O.co2  18  ASP18      -0.2456
      8  OD2      -10.2640    2.7880    2.3400 O.co2  18  ASP18      -0.2456
      9  CB        -4.8180    4.2690    2.8000 C.3    19  ILE19       0.0000
     10  CG2       -4.1370    5.5640    3.2470 C.3    19  ILE19       0.0000
     11  CG1       -5.5690    3.5730    4.0300 C.3    19  ILE19       0.0000
     12  CD1       -4.5530    2.8980    4.9200 C.3    19  ILE19       0.0000
     13  CB        -2.6170    5.5690   -1.4950 C.3    20  ILE20       0.0000
     14  CG2       -2.4710    6.9190   -0.7040 C.3    20  ILE20       0.0000
     15  CG1       -1.7440    4.4260   -0.8990 C.3    20  ILE20       0.0000
     16  CD1       -0.3100    4.4600   -1.3900 C.3    20  ILE20       0.0000
     17  CB        -6.4360    3.8300   -5.0650 C.3    21  TRP21       0.0066
     18  CG        -6.9980    2.9980   -6.1850 C.3    21  TRP21       0.0452
     19  CD1       -7.6910    3.4970   -7.2190 C.3    21  TRP21       0.1165
     20  NE1       -8.1030    2.4010   -8.0210 N.pl3  21  TRP21      -0.2376
     21  CE2       -7.5430    1.2310   -7.6120 C.ar   21  TRP21       0.0614
     22  CZ2       -7.5740   -0.0530   -8.1410 C.ar   21  TRP21       0.0158
     23  CH2       -7.0500   -1.0880   -7.3830 C.ar   21  TRP21       0.0013
     24  CZ3       -6.4280   -0.8890   -6.1760 C.ar   21  TRP21      -0.0002
     25  CE3       -6.3020    0.4230   -5.7090 C.ar   21  TRP21      -0.0030
     26  CD2       -6.9040    1.5300   -6.3920 C.ar   21  TRP21      -0.0059
@<TRIPOS>BOND
     1    22    23   ar
     2    22    21   ar
     3    23    24   ar
     4    21    20    1
     5    21    26   ar
     6    24    25   ar
     7    20    19    1
     8    25    26   ar
     9    26    18    1
    10    19    18    1
    11    18    17    1
    12     3     2    1
    13     2     4    1
    14     2     1    1
    15     5     6    1
    16     7     6   ar
    17    13    15    1
    18    13    14    1
    19    15    16    1
    20     6     8   ar
    21     9    11    1
    22     9    10    1
    23    11    12    1
@<TRIPOS>MOLECULE
9912992
 34 37 0 0 0
SMALL
GASTEIGER

@<TRIPOS>ATOM
      1 S          -1.4161   -1.3114   -6.0189 S.O2    1  LIG11       0.0908
      2 O          -4.4702    0.0485   -4.9401 O.3     1  LIG11      -0.4435
      3 O          -6.4688   -1.3411   -3.4242 O.3     1  LIG11      -0.4771
      4 O          -0.0147   -0.9849   -6.2104 O.2     1  LIG11      -0.1484
      5 O          -2.4111   -0.8409   -6.9558 O.2     1  LIG11      -0.1484
      6 O          -6.0446    2.1941   -5.1060 O.3     1  LIG11      -0.4914
      7 N          -1.7837   -0.7706   -4.4584 N.pl3   1  LIG11      -0.1950
      8 N          -2.5262   -2.3499   -3.0136 N.ar    1  LIG11      -0.2073
      9 N          -4.8212   -2.7275   -2.5298 N.ar    1  LIG11      -0.1899
     10 N          -2.8005   -3.5970   -5.9853 N.ar    1  LIG11      -0.2351
     11 N          -2.4674   -6.4016    0.0245 N.ar    1  LIG11      -0.2632
     12 C          -2.9116   -1.3630   -3.8406 C.ar    1  LIG11       0.1882
     13 C          -4.2165   -1.0014   -4.1028 C.ar    1  LIG11       0.2307
     14 C          -1.5324   -3.1063   -5.9237 C.ar    1  LIG11       0.1969
     15 C          -5.1429   -1.7194   -3.3702 C.ar    1  LIG11       0.2638
     16 C          -3.5168   -3.0185   -2.4044 C.ar    1  LIG11       0.1659
     17 C          -0.3889   -3.8779   -5.7926 C.ar    1  LIG11      -0.0160
     18 C          -3.1522   -4.1686   -1.5631 C.ar    1  LIG11       0.0222
     19 C          -5.5715   -0.0252   -5.7685 C.ar    1  LIG11       0.1702
     20 C          -1.8400   -5.8077   -5.7526 C.ar    1  LIG11      -0.0322
     21 C          -0.5541   -5.2570   -5.7061 C.ar    1  LIG11      -0.0541
     22 C          -2.9175   -4.9385   -5.9076 C.ar    1  LIG11       0.0327
     23 C          -6.3966    1.1052   -5.8621 C.ar    1  LIG11       0.1621
     24 C          -5.8365   -1.1601   -6.5459 C.ar    1  LIG11      -0.0157
     25 C          -2.0579   -7.2876   -5.7024 C.3     1  LIG11      -0.0383
     26 C          -4.0264   -4.6666   -0.5862 C.ar    1  LIG11      -0.0329
     27 C          -1.9219   -4.8247   -1.7150 C.ar    1  LIG11      -0.0329
     28 C          -7.5401    1.0503   -6.6648 C.ar    1  LIG11      -0.0163
     29 C          -6.9732   -1.2003   -7.3526 C.ar    1  LIG11      -0.0581
     30 C          -7.8299   -0.1023   -7.4015 C.ar    1  LIG11      -0.0581
     31 C          -3.6454   -5.7627    0.1715 C.ar    1  LIG11       0.0282
     32 C          -1.6311   -5.9180   -0.9150 C.ar    1  LIG11       0.0282
     33 C          -7.3665   -2.3980   -3.1064 C.3     1  LIG11       0.0805
     34 C          -6.4505    3.4557   -5.6222 C.3     1  LIG11       0.0790
@<TRIPOS>BOND
     1     1     4    2
     2     1     5    2
     3     1     7    1
     4     1    14    1
     5     2    13    1
     6     2    19    1
     7     3    15    1
     8     3    33    1
     9     6    23    1
    10     6    34    1
    11     7    12    1
    12     8    12   ar
    13     8    16   ar
    14     9    15   ar
    15     9    16   ar
    16    10    14   ar
    17    10    22   ar
    18    11    31   ar
    19    11    32   ar
    20    12    13   ar
    21    13    15   ar
    22    14    17   ar
    23    16    18    1
    24    17    21   ar
    25    18    26   ar
    26    18    27   ar
    27    19    23   ar
    28    19    24   ar
    29    20    21   ar
    30    20    22   ar
    31    20    25    1
    32    23    28   ar
    33    24    29   ar
    34    26    31   ar
    35    27    32   ar
    36    28    30   ar
    37    29    30   ar
@<TRIPOS>MOLECULE
../ET1/ET1_17-21_50CONFORMERS.pdb
 47 48 0 0 0
SMALL
GASTEIGER

@<TRIPOS>ATOM
      1  N         -4.7690    0.1010   -1.6400 N.3    17  LEU17      -0.1231
      2  CA        -6.0160   -0.5120   -2.0050 C.3    17  LEU17       0.1693
      3  CB        -6.3140   -1.7030   -1.0200 C.3    17  LEU17       0.0284
      4  CG        -7.7120   -2.3290   -1.2350 C.3    17  LEU17       0.0019
      5  CD1       -7.8370   -2.7490   -2.7140 C.3    17  LEU17       0.0001
      6  CD2       -7.9870   -3.4570   -0.2360 C.3    17  LEU17       0.0001
      7  C         -7.1180    0.5280   -1.8380 C.2    17  LEU17       0.2592
      8  O         -7.8620    0.8130   -2.8010 O.2    17  LEU17      -0.2718
      9  N         -7.1810    1.2020   -0.7160 N.am   18  ASP18      -0.1960
     10  CA        -8.1440    2.1370   -0.2650 C.3    18  ASP18       0.1840
     11  CB        -9.1000    1.3640    0.7210 C.3    18  ASP18       0.1450
     12  CG       -10.3480    2.1540    1.2570 C.2    18  ASP18       0.3671
     13  OD1      -11.2810    2.3270    0.4800 O.co2  18  ASP18      -0.2456
     14  OD2      -10.2640    2.7880    2.3400 O.co2  18  ASP18      -0.2456
     15  C         -7.6710    3.4460    0.3440 C.2    18  ASP18       0.2622
     16  O         -8.0810    4.5030   -0.1220 O.2    18  ASP18      -0.2715
     17  N         -6.6590    3.4240    1.2540 N.am   19  ILE19      -0.1963
     18  CA        -5.9390    4.6200    1.7680 C.3    19  ILE19       0.1727
     19  CB        -4.8180    4.2690    2.8000 C.3    19  ILE19       0.0290
     20  CG2       -4.1370    5.5640    3.2470 C.3    19  ILE19       0.0023
     21  CG1       -5.5690    3.5730    4.0300 C.3    19  ILE19       0.0022
     22  CD1       -4.5530    2.8980    4.9200 C.3    19  ILE19       0.0001
     23  C         -5.3610    5.3850    0.5350 C.2    19  ILE19       0.2616
     24  O         -5.6970    6.5880    0.3160 O.2    19  ILE19      -0.2715
     25  N         -4.6040    4.6750   -0.3290 N.am   20  ILE20      -0.1963
     26  CA        -4.1080    5.2050   -1.5810 C.3    20  ILE20       0.1727
     27  CB        -2.6170    5.5690   -1.4950 C.3    20  ILE20       0.0290
     28  CG2       -2.4710    6.9190   -0.7040 C.3    20  ILE20       0.0023
     29  CG1       -1.7440    4.4260   -0.8990 C.3    20  ILE20       0.0022
     30  CD1       -0.3100    4.4600   -1.3900 C.3    20  ILE20       0.0001
     31  C         -4.2640    4.2090   -2.7410 C.2    20  ILE20       0.2617
     32  O         -4.1140    3.0170   -2.5420 O.2    20  ILE20      -0.2715
     33  N         -4.5860    4.7690   -3.9350 N.am   21  TRP21      -0.1941
     34  CA        -4.9380    4.0930   -5.2110 C.3    21  TRP21       0.1982
     35  CB        -6.4360    3.8300   -5.0650 C.3    21  TRP21       0.0394
     36  CG        -6.9980    2.9980   -6.1850 C.3    21  TRP21       0.0475
     37  CD1       -7.6910    3.4970   -7.2190 C.3    21  TRP21       0.1166
     38  NE1       -8.1030    2.4010   -8.0210 N.pl3  21  TRP21      -0.2376
     39  CE2       -7.5430    1.2310   -7.6120 C.ar   21  TRP21       0.0614
     40  CZ2       -7.5740   -0.0530   -8.1410 C.ar   21  TRP21       0.0158
     41  CH2       -7.0500   -1.0880   -7.3830 C.ar   21  TRP21       0.0013
     42  CZ3       -6.4280   -0.8890   -6.1760 C.ar   21  TRP21      -0.0002
     43  CE3       -6.3020    0.4230   -5.7090 C.ar   21  TRP21      -0.0030
     44  CD2       -6.9040    1.5300   -6.3920 C.ar   21  TRP21      -0.0059
     45  C         -4.5080    4.8730   -6.4800 C.2    21  TRP21       0.3842
     46  O         -4.2510    4.2570   -7.5450 O.co2  21  TRP21      -0.2437
     47  OXT       -4.4690    6.1530   -6.4480 O.co2  21  TRP21      -0.2437
@<TRIPOS>BOND
     1    40    41   ar
     2    40    39   ar
     3    41    42   ar
     4    39    38    1
     5    39    44   ar
     6    42    43   ar
     7    38    37    1
     8    43    44   ar
     9    44    36    1
    10    37    36    1
    11    36    35    1
    12    47    45   ar
    13     5     4    1
    14    35    34    1
    15    45    34    1
    16    45    46   ar
    17    34    33    1
    18     8     7    2
    19     4     6    1
    20     4     3    1
    21     2     3    1
    22     2     1    1
    23     2     7    1
    24     7     9   am
    25    33    31   am
    26    32    31    2
    27    31    26    1
    28     9    10    1
    29    10    11    1
    30    10    15    1
    31    26    27    1
    32    26    25    1
    33    11    12    1
    34    13    12   ar
    35    27    29    1
    36    27    28    1
    37    29    30    1
    38    16    15    2
    39    15    17   am
    40    12    14   ar
    41    25    23   am
    42    17    18    1
    43    23    24    2
    44    23    18    1
    45    18    19    1
    46    19    21    1
    47    19    20    1
    48    21    22    1
