@<TRIPOS>MOLECULE
../ET1/ET1_17-21_50CONFORMERS_NOBACKBONE.pdb
 26 23 0 0 0
SMALL
GASTEIGER

@<TRIPOS>ATOM
      1  CB        -5.7510   -1.5250   -0.1230 C.3    17  LEU17       0.0000
      2  CG        -6.9360   -2.4800   -0.0490 C.3    17  LEU17       0.0000
      3  CD1       -6.9990   -3.5020   -1.2170 C.3    17  LEU17       0.0000
      4  CD2       -6.8230   -3.3060    1.2660 C.3    17  LEU17       0.0000
      5  CB        -9.2260    1.5060    1.0930 C.3    18  ASP18       0.1258
      6  CG       -10.5200    2.2960    1.1820 C.2    18  ASP18       0.3654
      7  OD1      -11.0230    2.3860    2.3020 O.co2  18  ASP18      -0.2456
      8  OD2      -11.1260    2.6690    0.1790 O.co2  18  ASP18      -0.2456
      9  CB        -4.7970    4.5340    2.6700 C.3    19  ILE19       0.0000
     10  CG2       -3.8740    5.7960    3.0190 C.3    19  ILE19       0.0000
     11  CG1       -5.4380    4.0490    3.9890 C.3    19  ILE19       0.0000
     12  CD1       -6.2590    5.1130    4.7510 C.3    19  ILE19       0.0000
     13  CB        -3.0810    5.6960   -2.4070 C.3    20  ILE20       0.0000
     14  CG2       -2.8670    7.0700   -1.9600 C.3    20  ILE20       0.0000
     15  CG1       -1.9760    4.8870   -1.7410 C.3    20  ILE20       0.0000
     16  CD1       -0.6990    4.8690   -2.6260 C.3    20  ILE20       0.0000
     17  CB        -6.9870    2.6630   -5.1200 C.3    21  TRP21       0.0066
     18  CG        -7.9410    3.7070   -5.2970 C.3    21  TRP21       0.0452
     19  CD1       -8.4750    4.4270   -4.3030 C.3    21  TRP21       0.1165
     20  NE1       -9.4180    5.2590   -4.8230 N.pl3  21  TRP21      -0.2376
     21  CE2       -9.6360    5.0990   -6.2080 C.ar   21  TRP21       0.0614
     22  CZ2      -10.4600    5.7020   -7.1940 C.ar   21  TRP21       0.0158
     23  CH2      -10.4100    5.2740   -8.5240 C.ar   21  TRP21       0.0013
     24  CZ3       -9.5380    4.1400   -8.8580 C.ar   21  TRP21      -0.0002
     25  CE3       -8.6300    3.6350   -7.8680 C.ar   21  TRP21      -0.0030
     26  CD2       -8.6730    4.1150   -6.5070 C.ar   21  TRP21      -0.0059
@<TRIPOS>BOND
     1    22    23   ar
     2    22    21   ar
     3    23    24   ar
     4    21    20    1
     5    21    26   ar
     6    24    25   ar
     7    20    19    1
     8    25    26   ar
     9    26    18    1
    10    19    18    1
    11    18    17    1
    12     3     2    1
    13     2     4    1
    14     2     1    1
    15     5     6    1
    16     7     6   ar
    17    13    15    1
    18    13    14    1
    19    15    16    1
    20     6     8   ar
    21     9    11    1
    22     9    10    1
    23    11    12    1
@<TRIPOS>MOLECULE
9957262
 35 38 0 0 0
SMALL
GASTEIGER

@<TRIPOS>ATOM
      1 S          -6.9641    2.4725   -3.2546 S.O2    1  LIG11       0.0668
      2 O          -4.0900    3.3470   -1.2255 O.3     1  LIG11      -0.4435
      3 O          -4.2120    4.4193    1.4323 O.3     1  LIG11      -0.4771
      4 O          -8.0186    2.2181   -2.2998 O.2     1  LIG11      -0.1505
      5 O          -5.8715    1.5324   -3.4039 O.2     1  LIG11      -0.1505
      6 O          -1.1474    3.1930   -1.2106 O.3     1  LIG11      -0.4914
      7 N          -6.1995    3.9488   -2.9067 N.pl3   1  LIG11      -0.1968
      8 N          -7.3429    4.9459   -1.1554 N.ar    1  LIG11      -0.2044
      9 N          -6.4024    5.1315    1.0233 N.ar    1  LIG11      -0.1867
     10 N          -8.9345    5.8457    1.9701 N.ar    1  LIG11      -0.2331
     11 N          -9.4649    6.5852   -0.2400 N.ar    1  LIG11      -0.2331
     12 C          -6.2276    4.3020   -1.5257 C.ar    1  LIG11       0.1883
     13 C          -5.1708    3.9949   -0.6915 C.ar    1  LIG11       0.2307
     14 C          -5.2961    4.5038    0.5832 C.ar    1  LIG11       0.2639
     15 C          -3.4059    2.4322   -0.4565 C.ar    1  LIG11       0.1702
     16 C          -7.6670    2.7020   -4.8266 C.2     1  LIG11       0.0729
     17 C          -7.4133    5.3077    0.1419 C.ar    1  LIG11       0.2027
     18 C          -2.0036    2.4000   -0.4937 C.ar    1  LIG11       0.1621
     19 C          -8.2815    3.8582   -5.1186 C.2     1  LIG11      -0.0353
     20 C          -8.8842    4.1935   -6.4190 C.ar    1  LIG11      -0.0237
     21 C          -4.1045    1.4754    0.3008 C.ar    1  LIG11      -0.0157
     22 C          -8.6648    5.9428    0.6433 C.ar    1  LIG11       0.1978
     23 C          -1.3290    1.4390    0.2733 C.ar    1  LIG11      -0.0163
     24 C          -3.4154    0.5395    1.0741 C.ar    1  LIG11      -0.0581
     25 C          -2.0252    0.5252    1.0647 C.ar    1  LIG11      -0.0581
     26 C          -9.8463    5.2122   -6.4681 C.ar    1  LIG11      -0.0546
     27 C          -8.4941    3.5871   -7.6224 C.ar    1  LIG11      -0.0546
     28 C         -10.4223    5.5988   -7.6816 C.ar    1  LIG11      -0.0612
     29 C          -9.0713    3.9717   -8.8372 C.ar    1  LIG11      -0.0612
     30 C         -10.0354    4.9764   -8.8659 C.ar    1  LIG11      -0.0617
     31 C          -4.4295    5.0039    2.7123 C.3     1  LIG11       0.0805
     32 C          -1.6545    4.3646   -1.8273 C.3     1  LIG11       0.0790
     33 C         -10.0741    6.4133    2.4024 C.ar    1  LIG11       0.0315
     34 C         -10.5862    7.1423    0.2553 C.ar    1  LIG11       0.0315
     35 C         -10.9463    7.0845    1.5793 C.ar    1  LIG11      -0.0254
@<TRIPOS>BOND
     1     1     4    2
     2     1     5    2
     3     1     7    1
     4     1    16    1
     5     2    13    1
     6     2    15    1
     7     3    14    1
     8     3    31    1
     9     6    18    1
    10     6    32    1
    11     7    12    1
    12     8    12   ar
    13     8    17   ar
    14     9    14   ar
    15     9    17   ar
    16    10    22   ar
    17    10    33   ar
    18    11    22   ar
    19    11    34   ar
    20    12    13   ar
    21    13    14   ar
    22    15    18   ar
    23    15    21   ar
    24    16    19    2
    25    17    22    1
    26    18    23   ar
    27    19    20    1
    28    20    26   ar
    29    20    27   ar
    30    21    24   ar
    31    23    25   ar
    32    24    25   ar
    33    26    28   ar
    34    27    29   ar
    35    28    30   ar
    36    29    30   ar
    37    33    35   ar
    38    34    35   ar
@<TRIPOS>MOLECULE
../ET1/ET1_17-21_50CONFORMERS.pdb
 47 48 0 0 0
SMALL
GASTEIGER

@<TRIPOS>ATOM
      1  N         -4.5540    0.1150   -1.5620 N.3    17  LEU17      -0.1231
      2  CA        -5.8090   -0.5840   -1.3290 C.3    17  LEU17       0.1693
      3  CB        -5.7510   -1.5250   -0.1230 C.3    17  LEU17       0.0284
      4  CG        -6.9360   -2.4800   -0.0490 C.3    17  LEU17       0.0019
      5  CD1       -6.9990   -3.5020   -1.2170 C.3    17  LEU17       0.0001
      6  CD2       -6.8230   -3.3060    1.2660 C.3    17  LEU17       0.0001
      7  C         -7.0240    0.3700   -1.1890 C.2    17  LEU17       0.2592
      8  O         -7.9580    0.3830   -2.0460 O.2    17  LEU17      -0.2718
      9  N         -7.1070    1.2040   -0.1500 N.am   18  ASP18      -0.1960
     10  CA        -8.2350    2.1390    0.0890 C.3    18  ASP18       0.1840
     11  CB        -9.2260    1.5060    1.0930 C.3    18  ASP18       0.1450
     12  CG       -10.5200    2.2960    1.1820 C.2    18  ASP18       0.3671
     13  OD1      -11.0230    2.3860    2.3020 O.co2  18  ASP18      -0.2456
     14  OD2      -11.1260    2.6690    0.1790 O.co2  18  ASP18      -0.2456
     15  C         -7.7820    3.5170    0.6000 C.2    18  ASP18       0.2622
     16  O         -8.4670    4.4960    0.4940 O.2    18  ASP18      -0.2715
     17  N         -6.5810    3.5870    1.2050 N.am   19  ILE19      -0.1963
     18  CA        -5.8740    4.8100    1.5590 C.3    19  ILE19       0.1727
     19  CB        -4.7970    4.5340    2.6700 C.3    19  ILE19       0.0290
     20  CG2       -3.8740    5.7960    3.0190 C.3    19  ILE19       0.0023
     21  CG1       -5.4380    4.0490    3.9890 C.3    19  ILE19       0.0022
     22  CD1       -6.2590    5.1130    4.7510 C.3    19  ILE19       0.0001
     23  C         -5.3420    5.6110    0.2930 C.2    19  ILE19       0.2616
     24  O         -5.6040    6.8160    0.2240 O.2    19  ILE19      -0.2715
     25  N         -4.6690    4.9230   -0.6700 N.am   20  ILE20      -0.1963
     26  CA        -4.5290    5.1760   -2.1090 C.3    20  ILE20       0.1727
     27  CB        -3.0810    5.6960   -2.4070 C.3    20  ILE20       0.0290
     28  CG2       -2.8670    7.0700   -1.9600 C.3    20  ILE20       0.0023
     29  CG1       -1.9760    4.8870   -1.7410 C.3    20  ILE20       0.0022
     30  CD1       -0.6990    4.8690   -2.6260 C.3    20  ILE20       0.0001
     31  C         -4.8930    3.9330   -2.9630 C.2    20  ILE20       0.2617
     32  O         -4.8870    2.8220   -2.4580 O.2    20  ILE20      -0.2715
     33  N         -5.1960    4.1430   -4.2260 N.am   21  TRP21      -0.1941
     34  CA        -5.5430    3.1210   -5.2240 C.3    21  TRP21       0.1982
     35  CB        -6.9870    2.6630   -5.1200 C.3    21  TRP21       0.0394
     36  CG        -7.9410    3.7070   -5.2970 C.3    21  TRP21       0.0475
     37  CD1       -8.4750    4.4270   -4.3030 C.3    21  TRP21       0.1166
     38  NE1       -9.4180    5.2590   -4.8230 N.pl3  21  TRP21      -0.2376
     39  CE2       -9.6360    5.0990   -6.2080 C.ar   21  TRP21       0.0614
     40  CZ2      -10.4600    5.7020   -7.1940 C.ar   21  TRP21       0.0158
     41  CH2      -10.4100    5.2740   -8.5240 C.ar   21  TRP21       0.0013
     42  CZ3       -9.5380    4.1400   -8.8580 C.ar   21  TRP21      -0.0002
     43  CE3       -8.6300    3.6350   -7.8680 C.ar   21  TRP21      -0.0030
     44  CD2       -8.6730    4.1150   -6.5070 C.ar   21  TRP21      -0.0059
     45  C         -5.3080    3.5370   -6.6660 C.2    21  TRP21       0.3842
     46  O         -4.6170    2.7680   -7.3540 O.co2  21  TRP21      -0.2437
     47  OXT       -5.6540    4.7210   -7.0500 O.co2  21  TRP21      -0.2437
@<TRIPOS>BOND
     1    40    41   ar
     2    40    39   ar
     3    41    42   ar
     4    39    38    1
     5    39    44   ar
     6    42    43   ar
     7    38    37    1
     8    43    44   ar
     9    44    36    1
    10    37    36    1
    11    36    35    1
    12    47    45   ar
    13     5     4    1
    14    35    34    1
    15    45    34    1
    16    45    46   ar
    17    34    33    1
    18     8     7    2
    19     4     6    1
    20     4     3    1
    21     2     3    1
    22     2     1    1
    23     2     7    1
    24     7     9   am
    25    33    31   am
    26    32    31    2
    27    31    26    1
    28     9    10    1
    29    10    11    1
    30    10    15    1
    31    26    27    1
    32    26    25    1
    33    11    12    1
    34    13    12   ar
    35    27    29    1
    36    27    28    1
    37    29    30    1
    38    16    15    2
    39    15    17   am
    40    12    14   ar
    41    25    23   am
    42    17    18    1
    43    23    24    2
    44    23    18    1
    45    18    19    1
    46    19    21    1
    47    19    20    1
    48    21    22    1
