@<TRIPOS>MOLECULE
../ET1/ET1_17-21_50CONFORMERS_NOBACKBONE.pdb
 26 23 0 0 0
SMALL
GASTEIGER

@<TRIPOS>ATOM
      1  CB        -5.9150   -1.7330   -0.9920 C.3    17  LEU17       0.0000
      2  CG        -6.7930   -2.9700   -1.3540 C.3    17  LEU17       0.0000
      3  CD1       -6.2140   -3.8230   -2.4370 C.3    17  LEU17       0.0000
      4  CD2       -7.0550   -3.8870   -0.1850 C.3    17  LEU17       0.0000
      5  CB        -9.7450    0.9120   -1.6490 C.3    18  ASP18       0.1258
      6  CG       -11.0620    1.5030   -2.1540 C.2    18  ASP18       0.3654
      7  OD1      -11.8300    2.0300   -1.2950 O.co2  18  ASP18      -0.2456
      8  OD2      -11.3540    1.6480   -3.3860 O.co2  18  ASP18      -0.2456
      9  CB        -8.1330    4.0200    2.2160 C.3    19  ILE19       0.0000
     10  CG2       -7.8130    5.2060    3.2120 C.3    19  ILE19       0.0000
     11  CG1       -9.3630    3.2270    2.7510 C.3    19  ILE19       0.0000
     12  CD1      -10.7540    3.8490    2.3780 C.3    19  ILE19       0.0000
     13  CB        -3.2600    4.8240    0.3520 C.3    20  ILE20       0.0000
     14  CG2       -1.9660    5.1870   -0.3850 C.3    20  ILE20       0.0000
     15  CG1       -3.0540    5.1300    1.8350 C.3    20  ILE20       0.0000
     16  CD1       -3.6990    4.1430    2.8550 C.3    20  ILE20       0.0000
     17  CB        -6.5710    4.8500   -4.2780 C.3    21  TRP21       0.0066
     18  CG        -6.9860    4.2470   -5.5640 C.3    21  TRP21       0.0452
     19  CD1       -7.6890    4.8410   -6.5160 C.3    21  TRP21       0.1165
     20  NE1       -8.1330    3.9500   -7.4630 N.pl3  21  TRP21      -0.2376
     21  CE2       -7.5380    2.7170   -7.2510 C.ar   21  TRP21       0.0614
     22  CZ2       -7.6290    1.4500   -7.9070 C.ar   21  TRP21       0.0158
     23  CH2       -6.8640    0.4030   -7.4010 C.ar   21  TRP21       0.0013
     24  CZ3       -6.2010    0.4890   -6.1600 C.ar   21  TRP21      -0.0002
     25  CE3       -6.2390    1.7600   -5.4750 C.ar   21  TRP21      -0.0030
     26  CD2       -6.8380    2.9140   -6.0230 C.ar   21  TRP21      -0.0059
@<TRIPOS>BOND
     1    22    23   ar
     2    22    21   ar
     3    23    24   ar
     4    21    20    1
     5    21    26   ar
     6    24    25   ar
     7    20    19    1
     8    25    26   ar
     9    26    18    1
    10    19    18    1
    11    18    17    1
    12     3     2    1
    13     2     4    1
    14     2     1    1
    15     5     6    1
    16     7     6   ar
    17    13    15    1
    18    13    14    1
    19    15    16    1
    20     6     8   ar
    21     9    11    1
    22     9    10    1
    23    11    12    1
@<TRIPOS>MOLECULE
HTS1204-03362316-01
 44 47 0 0 0
SMALL
USER_CHARGES

@<TRIPOS>ATOM
      1 C1         -5.5308    1.2780   -5.1422 C.ar    1  UNK11      -0.0199
      2 N1         -7.2734   -0.0567   -5.5517 N.ar    1  UNK11      -0.3494
      3 C2         -7.5103    1.0385    1.7197 C.2     1  UNK11       0.3028
      4 C3         -6.1962    0.1416   -4.7413 C.ar    1  UNK11       0.0086
      5 C4         -3.2649    3.4202   -2.8262 C.2     1  UNK11       0.2342
      6 C5         -6.1876    1.7203   -6.3408 C.ar    1  UNK11       0.0031
      7 C6         -5.9371    1.2220   -1.4722 C.2     1  UNK11       0.2340
      8 C7         -7.2646    0.8571   -6.5799 C.ar    1  UNK11       0.0491
      9 N2         -6.4644    1.2636    0.8782 N.am    1  UNK11      -0.2879
     10 N3         -7.8850    2.1449    2.4836 N.am    1  UNK11      -0.2856
     11 N4         -4.6984    1.5122   -2.0221 N.am    1  UNK11      -0.3022
     12 N5         -3.0818    4.0832   -1.6531 N.am    1  UNK11      -0.3054
     13 C8         -4.5064    2.5091   -3.0904 C.3     1  UNK11       0.1034
     14 C9         -5.8987    0.3848   -0.1589 C.3     1  UNK11       0.1011
     15 C10        -3.7922    3.9965   -0.3587 C.3     1  UNK11       0.0680
     16 C11        -4.3085    1.8569   -4.4869 C.3     1  UNK11       0.0013
     17 C12        -3.5315    2.7057    0.4669 C.2     1  UNK11       0.0623
     18 C13        -3.3680    5.1319    0.5917 C.3     1  UNK11       0.0133
     19 O1         -8.0945   -0.0374    1.8263 O.2     1  UNK11      -0.2526
     20 O2         -6.9892    1.6451   -1.9554 O.2     1  UNK11      -0.2738
     21 O3         -2.4586    3.6986   -3.7259 O.2     1  UNK11      -0.2738
     22 N6         -3.6171    7.0367   -0.9330 N.ar    1  UNK11      -0.2598
     23 O4         -2.8356    1.8133   -0.1002 O.co2   1  UNK11      -0.5479
     24 C14        -6.5710   -0.9861   -0.3210 C.3     1  UNK11      -0.0236
     25 C15        -3.9867    6.4636    0.2380 C.ar    1  UNK11       0.0434
     26 O5         -4.1878    2.6100    1.5473 O.co2   1  UNK11      -0.5479
     27 C16        -8.2644   -1.0857   -5.3443 C.3     1  UNK11       0.0119
     28 C17        -8.8230    1.9036    3.5814 C.3     1  UNK11       0.0161
     29 C18        -7.5879    3.5282    2.1021 C.3     1  UNK11       0.0161
     30 C19        -8.1116    0.9992   -7.6904 C.ar    1  UNK11      -0.0376
     31 C20        -5.9571    2.7687   -7.2575 C.ar    1  UNK11      -0.0523
     32 C21        -5.8405   -1.9866   -1.2378 C.3     1  UNK11      -0.0446
     33 C22        -4.1753    8.2226   -1.2516 C.ar    1  UNK11       0.0279
     34 C23        -4.8725    7.0814    1.1195 C.ar    1  UNK11      -0.0403
     35 C24        -6.6095   -3.3108   -1.2695 C.3     1  UNK11      -0.0626
     36 C25        -4.3910   -2.2377   -0.8233 C.3     1  UNK11      -0.0626
     37 C26        -9.5135    3.1365    4.1654 C.3     1  UNK11      -0.0371
     38 C27        -8.7380    4.1894    1.3351 C.3     1  UNK11      -0.0371
     39 C28        -6.7901    2.9137   -8.3741 C.ar    1  UNK11      -0.0611
     40 C29        -7.8515    2.0392   -8.5858 C.ar    1  UNK11      -0.0598
     41 C30        -5.0638    8.8998   -0.4350 C.ar    1  UNK11      -0.0436
     42 C31        -5.4104    8.3192    0.7783 C.ar    1  UNK11      -0.0586
     43 C32       -10.4859    3.8300    3.2085 C.3     1  UNK11      -0.0516
     44 C33       -10.1493    3.7466    1.7216 C.3     1  UNK11      -0.0516
@<TRIPOS>BOND
     1     2     4   ar
     2     3     9   am
     3     1     4   ar
     4     5    13    1
     5     1     6   ar
     6     7    11   am
     7     6     8   ar
     8     9    14    1
     9     3    10   am
    10    11    13    1
    11     5    12   am
    12    13    16    1
    13     7    14    1
    14    12    15    1
    15     1    16    1
    16    15    17    1
    17    15    18    1
    18     3    19    2
    19     7    20    2
    20     5    21    2
    21    22    25   ar
    22    17    23   ar
    23    14    24    1
    24    18    25    1
    25    17    26   ar
    26     2    27    1
    27    10    28    1
    28    10    29    1
    29     8    30   ar
    30     6    31   ar
    31    24    32    1
    32    22    33   ar
    33    25    34   ar
    34    32    35    1
    35    32    36    1
    36    28    37    1
    37    29    38    1
    38    31    39   ar
    39    39    40   ar
    40    41    42   ar
    41    34    42   ar
    42    37    43    1
    43    38    44    1
    44     2     8   ar
    45    30    40   ar
    46    33    41   ar
    47    43    44    1
@<TRIPOS>MOLECULE
../ET1/ET1_17-21_50CONFORMERS.pdb
 47 48 0 0 0
SMALL
GASTEIGER

@<TRIPOS>ATOM
      1  N         -4.5300    0.1590   -1.6710 N.3    17  LEU17      -0.1231
      2  CA        -5.5930   -0.7210   -2.1070 C.3    17  LEU17       0.1693
      3  CB        -5.9150   -1.7330   -0.9920 C.3    17  LEU17       0.0284
      4  CG        -6.7930   -2.9700   -1.3540 C.3    17  LEU17       0.0019
      5  CD1       -6.2140   -3.8230   -2.4370 C.3    17  LEU17       0.0001
      6  CD2       -7.0550   -3.8870   -0.1850 C.3    17  LEU17       0.0001
      7  C         -6.8580   -0.0060   -2.6050 C.2    17  LEU17       0.2592
      8  O         -7.4790   -0.4710   -3.5640 O.2    17  LEU17      -0.2718
      9  N         -7.3280    1.0080   -1.8550 N.am   18  ASP18      -0.1960
     10  CA        -8.5650    1.7140   -2.1340 C.3    18  ASP18       0.1840
     11  CB        -9.7450    0.9120   -1.6490 C.3    18  ASP18       0.1450
     12  CG       -11.0620    1.5030   -2.1540 C.2    18  ASP18       0.3671
     13  OD1      -11.8300    2.0300   -1.2950 O.co2  18  ASP18      -0.2456
     14  OD2      -11.3540    1.6480   -3.3860 O.co2  18  ASP18      -0.2456
     15  C         -8.5690    3.1210   -1.4650 C.2    18  ASP18       0.2622
     16  O         -8.8170    4.0880   -2.1790 O.2    18  ASP18      -0.2715
     17  N         -8.3590    3.1990   -0.1590 N.am   19  ILE19      -0.1963
     18  CA        -8.2060    4.4460    0.7240 C.3    19  ILE19       0.1727
     19  CB        -8.1330    4.0200    2.2160 C.3    19  ILE19       0.0290
     20  CG2       -7.8130    5.2060    3.2120 C.3    19  ILE19       0.0023
     21  CG1       -9.3630    3.2270    2.7510 C.3    19  ILE19       0.0022
     22  CD1      -10.7540    3.8490    2.3780 C.3    19  ILE19       0.0001
     23  C         -6.9690    5.2450    0.2790 C.2    19  ILE19       0.2616
     24  O         -7.0590    6.3590   -0.0630 O.2    19  ILE19      -0.2715
     25  N         -5.7500    4.6960    0.2020 N.am   20  ILE20      -0.1963
     26  CA        -4.5220    5.3510   -0.3470 C.3    20  ILE20       0.1727
     27  CB        -3.2600    4.8240    0.3520 C.3    20  ILE20       0.0290
     28  CG2       -1.9660    5.1870   -0.3850 C.3    20  ILE20       0.0023
     29  CG1       -3.0540    5.1300    1.8350 C.3    20  ILE20       0.0022
     30  CD1       -3.6990    4.1430    2.8550 C.3    20  ILE20       0.0001
     31  C         -4.5660    4.8880   -1.8040 C.2    20  ILE20       0.2617
     32  O         -4.5390    3.6220   -2.1030 O.2    20  ILE20      -0.2715
     33  N         -4.8940    5.7710   -2.6950 N.am   21  TRP21      -0.1941
     34  CA        -5.1590    5.4550   -4.0940 C.3    21  TRP21       0.1982
     35  CB        -6.5710    4.8500   -4.2780 C.3    21  TRP21       0.0394
     36  CG        -6.9860    4.2470   -5.5640 C.3    21  TRP21       0.0475
     37  CD1       -7.6890    4.8410   -6.5160 C.3    21  TRP21       0.1166
     38  NE1       -8.1330    3.9500   -7.4630 N.pl3  21  TRP21      -0.2376
     39  CE2       -7.5380    2.7170   -7.2510 C.ar   21  TRP21       0.0614
     40  CZ2       -7.6290    1.4500   -7.9070 C.ar   21  TRP21       0.0158
     41  CH2       -6.8640    0.4030   -7.4010 C.ar   21  TRP21       0.0013
     42  CZ3       -6.2010    0.4890   -6.1600 C.ar   21  TRP21      -0.0002
     43  CE3       -6.2390    1.7600   -5.4750 C.ar   21  TRP21      -0.0030
     44  CD2       -6.8380    2.9140   -6.0230 C.ar   21  TRP21      -0.0059
     45  C         -4.9400    6.5200   -5.1300 C.2    21  TRP21       0.3842
     46  O         -3.9390    6.3340   -5.8270 O.co2  21  TRP21      -0.2437
     47  OXT       -5.6270    7.5910   -5.1180 O.co2  21  TRP21      -0.2437
@<TRIPOS>BOND
     1    40    41   ar
     2    40    39   ar
     3    41    42   ar
     4    39    38    1
     5    39    44   ar
     6    42    43   ar
     7    38    37    1
     8    43    44   ar
     9    44    36    1
    10    37    36    1
    11    36    35    1
    12    47    45   ar
    13     5     4    1
    14    35    34    1
    15    45    34    1
    16    45    46   ar
    17    34    33    1
    18     8     7    2
    19     4     6    1
    20     4     3    1
    21     2     3    1
    22     2     1    1
    23     2     7    1
    24     7     9   am
    25    33    31   am
    26    32    31    2
    27    31    26    1
    28     9    10    1
    29    10    11    1
    30    10    15    1
    31    26    27    1
    32    26    25    1
    33    11    12    1
    34    13    12   ar
    35    27    29    1
    36    27    28    1
    37    29    30    1
    38    16    15    2
    39    15    17   am
    40    12    14   ar
    41    25    23   am
    42    17    18    1
    43    23    24    2
    44    23    18    1
    45    18    19    1
    46    19    21    1
    47    19    20    1
    48    21    22    1
