@<TRIPOS>MOLECULE
../ET1/ET1_17-21_50CONFORMERS_NOBACKBONE.pdb
 26 23 0 0 0
SMALL
GASTEIGER

@<TRIPOS>ATOM
      1  CB        -6.3700   -1.8050   -0.2060 C.3    17  LEU17       0.0000
      2  CG        -7.6770   -2.6370   -0.2070 C.3    17  LEU17       0.0000
      3  CD1       -7.7720   -3.4980   -1.4100 C.3    17  LEU17       0.0000
      4  CD2       -7.8300   -3.5260    1.0180 C.3    17  LEU17       0.0000
      5  CB        -9.4620    1.8070    0.9100 C.3    18  ASP18       0.1258
      6  CG       -10.5680    2.8630    1.0760 C.2    18  ASP18       0.3654
      7  OD1      -11.5500    2.8380    0.3300 O.co2  18  ASP18      -0.2456
      8  OD2      -10.4140    3.6300    2.0110 O.co2  18  ASP18      -0.2456
      9  CB        -5.3050    4.5110    2.7070 C.3    19  ILE19       0.0000
     10  CG2       -4.4360    5.7350    3.1290 C.3    19  ILE19       0.0000
     11  CG1       -6.0230    3.8420    3.9750 C.3    19  ILE19       0.0000
     12  CD1       -6.9850    4.9020    4.6120 C.3    19  ILE19       0.0000
     13  CB        -2.4570    5.4700   -1.3450 C.3    20  ILE20       0.0000
     14  CG2       -2.1500    6.6250   -0.3180 C.3    20  ILE20       0.0000
     15  CG1       -1.7200    4.1500   -1.0860 C.3    20  ILE20       0.0000
     16  CD1       -0.1680    4.2940   -1.0740 C.3    20  ILE20       0.0000
     17  CB        -5.8830    4.8470   -5.8240 C.3    21  TRP21       0.0066
     18  CG        -6.9950    4.3220   -4.9430 C.3    21  TRP21       0.0452
     19  CD1       -7.3330    4.6770   -3.6820 C.3    21  TRP21       0.1165
     20  NE1       -8.3680    3.9550   -3.1920 N.pl3  21  TRP21      -0.2376
     21  CE2       -8.8970    3.0980   -4.1470 C.ar   21  TRP21       0.0614
     22  CZ2       -9.9180    2.1260   -4.1570 C.ar   21  TRP21       0.0158
     23  CH2      -10.1590    1.3550   -5.3180 C.ar   21  TRP21       0.0013
     24  CZ3       -9.3060    1.6050   -6.3710 C.ar   21  TRP21      -0.0002
     25  CE3       -8.2430    2.5870   -6.3550 C.ar   21  TRP21      -0.0030
     26  CD2       -8.0330    3.3480   -5.2670 C.ar   21  TRP21      -0.0059
@<TRIPOS>BOND
     1    22    23   ar
     2    22    21   ar
     3    23    24   ar
     4    21    20    1
     5    21    26   ar
     6    24    25   ar
     7    20    19    1
     8    25    26   ar
     9    26    18    1
    10    19    18    1
    11    18    17    1
    12     3     2    1
    13     2     4    1
    14     2     1    1
    15     5     6    1
    16     7     6   ar
    17    13    15    1
    18    13    14    1
    19    15    16    1
    20     6     8   ar
    21     9    11    1
    22     9    10    1
    23    11    12    1
@<TRIPOS>MOLECULE
178103
 37 41 0 0 0
SMALL
GASTEIGER

@<TRIPOS>ATOM
      1 O          -4.5619    3.9283   -5.6792 O.co2   1  LIG11      -0.5495
      2 O          -6.1356    5.3326   -6.5385 O.co2   1  LIG11      -0.5495
      3 O          -5.7530    3.0397    1.4609 O.3     1  LIG11      -0.4920
      4 O          -3.6869    6.7511   -2.1535 O.3     1  LIG11      -0.4893
      5 O         -11.5853    1.5410   -3.7005 O.3     1  LIG11      -0.4526
      6 O         -11.8642    1.4280   -6.0950 O.3     1  LIG11      -0.4526
      7 O          -6.6839   10.4501   -1.7039 O.3     1  LIG11      -0.4950
      8 O          -0.8246    6.3398   -2.4192 O.3     1  LIG11      -0.3917
      9 C          -6.4789    4.4596   -4.3799 C.3     1  LIG11       0.0203
     10 C          -5.6554    5.0190   -3.1901 C.3     1  LIG11       0.0218
     11 C          -6.7776    2.9626   -4.1087 C.3     1  LIG11       0.0184
     12 C          -5.9597    4.0124   -2.1013 C.ar    1  LIG11      -0.0320
     13 C          -6.5450    2.8554   -2.6164 C.ar    1  LIG11      -0.0353
     14 C          -5.9565    6.4638   -2.7777 C.ar    1  LIG11       0.0025
     15 C          -8.1681    2.5733   -4.6272 C.ar    1  LIG11      -0.0356
     16 C          -5.6343    4.5897   -5.6429 C.2     1  LIG11       0.0466
     17 C          -5.6310    4.1095   -0.7511 C.ar    1  LIG11      -0.0159
     18 C          -6.7629    1.7587   -1.7901 C.ar    1  LIG11      -0.0542
     19 C          -4.9364    7.3064   -2.2819 C.ar    1  LIG11       0.1278
     20 C          -5.9366    3.0509    0.1039 C.ar    1  LIG11       0.1208
     21 C          -9.2631    2.2835   -3.7929 C.ar    1  LIG11      -0.0124
     22 C          -6.4826    1.8726   -0.4253 C.ar    1  LIG11      -0.0196
     23 C          -8.3601    2.5107   -6.0329 C.ar    1  LIG11      -0.0543
     24 C          -7.2672    6.9739   -2.8258 C.ar    1  LIG11      -0.0510
     25 C         -10.4558    1.8972   -4.3728 C.ar    1  LIG11       0.1665
     26 C          -9.5895    2.1464   -6.5947 C.ar    1  LIG11      -0.0159
     27 C          -5.2301    8.6337   -1.9386 C.ar    1  LIG11       0.0221
     28 C          -7.5495    8.2979   -2.4797 C.ar    1  LIG11      -0.0194
     29 C         -10.6151    1.8296   -5.7358 C.ar    1  LIG11       0.1662
     30 C          -6.5247    9.1375   -2.0620 C.ar    1  LIG11       0.1236
     31 C          -5.2520    4.2355    2.0581 C.3     1  LIG11       0.0893
     32 C         -12.4554    1.2069   -4.7995 C.3     1  LIG11       0.2332
     33 C          -2.7115    7.4905   -1.4143 C.3     1  LIG11       0.1126
     34 C          -5.5684    4.2040    3.5516 C.3     1  LIG11      -0.0215
     35 C          -1.5022    6.5874   -1.1904 C.3     1  LIG11       0.0783
     36 C          -7.7117   11.1371   -2.4105 C.3     1  LIG11       0.0788
     37 C          -7.0620    4.3680    3.8066 C.3     1  LIG11      -0.0622
@<TRIPOS>BOND
     1     1    16   ar
     2     2    16   ar
     3     3    20    1
     4     3    31    1
     5     4    19    1
     6     4    33    1
     7     5    25    1
     8     5    32    1
     9     6    29    1
    10     6    32    1
    11     7    30    1
    12     7    36    1
    13     8    35    1
    14     9    10    1
    15     9    11    1
    16     9    16    1
    17    10    12    1
    18    10    14    1
    19    11    13    1
    20    11    15    1
    21    12    13   ar
    22    12    17   ar
    23    13    18   ar
    24    14    19   ar
    25    14    24   ar
    26    15    21   ar
    27    15    23   ar
    28    17    20   ar
    29    18    22   ar
    30    19    27   ar
    31    20    22   ar
    32    21    25   ar
    33    23    26   ar
    34    24    28   ar
    35    25    29   ar
    36    26    29   ar
    37    27    30   ar
    38    28    30   ar
    39    31    34    1
    40    33    35    1
    41    34    37    1
@<TRIPOS>MOLECULE
../ET1/ET1_17-21_50CONFORMERS.pdb
 47 48 0 0 0
SMALL
GASTEIGER

@<TRIPOS>ATOM
      1  N         -4.9300    0.0250   -1.1410 N.3    17  LEU17      -0.1231
      2  CA        -6.2160   -0.6670   -1.2750 C.3    17  LEU17       0.1693
      3  CB        -6.3700   -1.8050   -0.2060 C.3    17  LEU17       0.0284
      4  CG        -7.6770   -2.6370   -0.2070 C.3    17  LEU17       0.0019
      5  CD1       -7.7720   -3.4980   -1.4100 C.3    17  LEU17       0.0001
      6  CD2       -7.8300   -3.5260    1.0180 C.3    17  LEU17       0.0001
      7  C         -7.4290    0.3110   -1.2070 C.2    17  LEU17       0.2592
      8  O         -8.2410    0.2990   -2.1470 O.2    17  LEU17      -0.2718
      9  N         -7.4630    1.1840   -0.2470 N.am   18  ASP18      -0.1960
     10  CA        -8.4450    2.2110   -0.1340 C.3    18  ASP18       0.1840
     11  CB        -9.4620    1.8070    0.9100 C.3    18  ASP18       0.1450
     12  CG       -10.5680    2.8630    1.0760 C.2    18  ASP18       0.3671
     13  OD1      -11.5500    2.8380    0.3300 O.co2  18  ASP18      -0.2456
     14  OD2      -10.4140    3.6300    2.0110 O.co2  18  ASP18      -0.2456
     15  C         -7.9300    3.6490    0.1720 C.2    18  ASP18       0.2622
     16  O         -8.3060    4.6610   -0.4000 O.2    18  ASP18      -0.2715
     17  N         -6.9560    3.7380    1.0780 N.am   19  ILE19      -0.1963
     18  CA        -6.2590    4.9510    1.5320 C.3    19  ILE19       0.1727
     19  CB        -5.3050    4.5110    2.7070 C.3    19  ILE19       0.0290
     20  CG2       -4.4360    5.7350    3.1290 C.3    19  ILE19       0.0023
     21  CG1       -6.0230    3.8420    3.9750 C.3    19  ILE19       0.0022
     22  CD1       -6.9850    4.9020    4.6120 C.3    19  ILE19       0.0001
     23  C         -5.5040    5.6430    0.3790 C.2    19  ILE19       0.2616
     24  O         -5.6940    6.8250    0.1220 O.2    19  ILE19      -0.2715
     25  N         -4.6970    4.8860   -0.3940 N.am   20  ILE20      -0.1963
     26  CA        -3.9560    5.3600   -1.5730 C.3    20  ILE20       0.1727
     27  CB        -2.4570    5.4700   -1.3450 C.3    20  ILE20       0.0290
     28  CG2       -2.1500    6.6250   -0.3180 C.3    20  ILE20       0.0023
     29  CG1       -1.7200    4.1500   -1.0860 C.3    20  ILE20       0.0022
     30  CD1       -0.1680    4.2940   -1.0740 C.3    20  ILE20       0.0001
     31  C         -4.2210    4.4780   -2.8270 C.2    20  ILE20       0.2617
     32  O         -4.5200    3.2710   -2.7150 O.2    20  ILE20      -0.2715
     33  N         -4.1970    5.0920   -4.0030 N.am   21  TRP21      -0.1941
     34  CA        -4.4600    4.5270   -5.3230 C.3    21  TRP21       0.1982
     35  CB        -5.8830    4.8470   -5.8240 C.3    21  TRP21       0.0394
     36  CG        -6.9950    4.3220   -4.9430 C.3    21  TRP21       0.0475
     37  CD1       -7.3330    4.6770   -3.6820 C.3    21  TRP21       0.1166
     38  NE1       -8.3680    3.9550   -3.1920 N.pl3  21  TRP21      -0.2376
     39  CE2       -8.8970    3.0980   -4.1470 C.ar   21  TRP21       0.0614
     40  CZ2       -9.9180    2.1260   -4.1570 C.ar   21  TRP21       0.0158
     41  CH2      -10.1590    1.3550   -5.3180 C.ar   21  TRP21       0.0013
     42  CZ3       -9.3060    1.6050   -6.3710 C.ar   21  TRP21      -0.0002
     43  CE3       -8.2430    2.5870   -6.3550 C.ar   21  TRP21      -0.0030
     44  CD2       -8.0330    3.3480   -5.2670 C.ar   21  TRP21      -0.0059
     45  C         -3.4540    4.8840   -6.4240 C.2    21  TRP21       0.3842
     46  O         -3.1280    6.1110   -6.4220 O.co2  21  TRP21      -0.2437
     47  OXT       -3.0220    4.0340   -7.2330 O.co2  21  TRP21      -0.2437
@<TRIPOS>BOND
     1    40    41   ar
     2    40    39   ar
     3    41    42   ar
     4    39    38    1
     5    39    44   ar
     6    42    43   ar
     7    38    37    1
     8    43    44   ar
     9    44    36    1
    10    37    36    1
    11    36    35    1
    12    47    45   ar
    13     5     4    1
    14    35    34    1
    15    45    34    1
    16    45    46   ar
    17    34    33    1
    18     8     7    2
    19     4     6    1
    20     4     3    1
    21     2     3    1
    22     2     1    1
    23     2     7    1
    24     7     9   am
    25    33    31   am
    26    32    31    2
    27    31    26    1
    28     9    10    1
    29    10    11    1
    30    10    15    1
    31    26    27    1
    32    26    25    1
    33    11    12    1
    34    13    12   ar
    35    27    29    1
    36    27    28    1
    37    29    30    1
    38    16    15    2
    39    15    17   am
    40    12    14   ar
    41    25    23   am
    42    17    18    1
    43    23    24    2
    44    23    18    1
    45    18    19    1
    46    19    21    1
    47    19    20    1
    48    21    22    1
