@<TRIPOS>MOLECULE
../ET1/ET1_17-21_50CONFORMERS_NOBACKBONE.pdb
 26 23 0 0 0
SMALL
GASTEIGER

@<TRIPOS>ATOM
      1  CB        -6.1140   -1.8820   -0.4900 C.3    17  LEU17       0.0000
      2  CG        -7.2650   -2.7690   -0.6600 C.3    17  LEU17       0.0000
      3  CD1       -7.3900   -3.4950   -2.0480 C.3    17  LEU17       0.0000
      4  CD2       -7.1410   -3.7620    0.4720 C.3    17  LEU17       0.0000
      5  CB        -9.1410    1.7570   -0.1550 C.3    18  ASP18       0.1258
      6  CG       -10.1710    2.8850   -0.2460 C.2    18  ASP18       0.3654
      7  OD1      -10.6760    3.2080   -1.3630 O.co2  18  ASP18      -0.2456
      8  OD2      -10.4770    3.5040    0.7690 O.co2  18  ASP18      -0.2456
      9  CB        -5.6040    4.3930    2.7640 C.3    19  ILE19       0.0000
     10  CG2       -4.2170    3.6840    2.7970 C.3    19  ILE19       0.0000
     11  CG1       -5.5280    5.7000    3.6000 C.3    19  ILE19       0.0000
     12  CD1       -5.4860    5.6870    5.1130 C.3    19  ILE19       0.0000
     13  CB        -1.9560    5.2450   -0.9570 C.3    20  ILE20       0.0000
     14  CG2       -1.7080    6.3380    0.0690 C.3    20  ILE20       0.0000
     15  CG1       -1.3600    3.9820   -0.3460 C.3    20  ILE20       0.0000
     16  CD1        0.1990    3.7350   -0.5770 C.3    20  ILE20       0.0000
     17  CB        -6.1240    4.0010   -4.7070 C.3    21  TRP21       0.0066
     18  CG        -6.3580    2.9820   -5.7480 C.3    21  TRP21       0.0452
     19  CD1       -7.0560    3.2340   -6.9070 C.3    21  TRP21       0.1165
     20  NE1       -7.0290    2.1090   -7.7360 N.pl3  21  TRP21      -0.2376
     21  CE2       -6.3000    1.0730   -7.1490 C.ar   21  TRP21       0.0614
     22  CZ2       -5.8740   -0.1620   -7.5750 C.ar   21  TRP21       0.0158
     23  CH2       -5.1360   -1.0060   -6.7390 C.ar   21  TRP21       0.0013
     24  CZ3       -4.8080   -0.5800   -5.4470 C.ar   21  TRP21      -0.0002
     25  CE3       -5.1980    0.7150   -5.0400 C.ar   21  TRP21      -0.0030
     26  CD2       -5.8780    1.5800   -5.8800 C.ar   21  TRP21      -0.0059
@<TRIPOS>BOND
     1    22    23   ar
     2    22    21   ar
     3    23    24   ar
     4    21    20    1
     5    21    26   ar
     6    24    25   ar
     7    20    19    1
     8    25    26   ar
     9    26    18    1
    10    19    18    1
    11    18    17    1
    12     3     2    1
    13     2     4    1
    14     2     1    1
    15     5     6    1
    16     7     6   ar
    17    13    15    1
    18    13    14    1
    19    15    16    1
    20     6     8   ar
    21     9    11    1
    22     9    10    1
    23    11    12    1
@<TRIPOS>MOLECULE
01479498K
 34 38 0 0 0
SMALL
GASTEIGER

@<TRIPOS>ATOM
      1 C          -5.7255    2.9814   -6.2449 C.3     1  LIG11       0.1526
      2 C          -6.3647    3.6241   -5.0509 C.2     1  LIG11       0.0278
      3 C          -5.5842    1.4594   -6.1779 C.ar    1  LIG11       0.0009
      4 O          -4.4168    3.5111   -6.5795 O.3     1  LIG11      -0.4789
      5 C          -5.6783    4.2916   -4.1055 C.2     1  LIG11       0.0016
      6 C          -7.8831    3.4814   -5.0451 C.2     1  LIG11       0.0721
      7 C          -5.2272    0.8007   -4.9860 C.ar    1  LIG11      -0.0091
      8 C          -5.7488    0.6952   -7.3604 C.ar    1  LIG11      -0.0511
      9 C          -3.6571    3.9154   -5.5163 C.ar    1  LIG11       0.1298
     10 C          -4.2082    4.2929   -4.2889 C.ar    1  LIG11       0.0283
     11 C          -6.3697    4.9341   -2.9689 C.ar    1  LIG11      -0.0165
     12 O          -8.3439    2.6613   -4.2038 O.co2   1  LIG11      -0.5448
     13 O          -8.4753    4.1556   -5.9348 O.co2   1  LIG11      -0.5448
     14 C          -5.0598   -0.5670   -5.0147 C.ar    1  LIG11       0.1666
     15 C          -5.5755   -0.6933   -7.3595 C.ar    1  LIG11      -0.0158
     16 C          -2.2780    3.9600   -5.7223 C.ar    1  LIG11      -0.0158
     17 C          -3.3419    4.6719   -3.2509 C.ar    1  LIG11      -0.0087
     18 C          -6.6844    6.2945   -3.0161 C.ar    1  LIG11      -0.0505
     19 C          -6.6450    4.2075   -1.8062 C.ar    1  LIG11      -0.0505
     20 C          -5.2301   -1.2938   -6.1691 C.ar    1  LIG11       0.1662
     21 O          -4.7083   -1.3474   -3.9569 O.3     1  LIG11      -0.4526
     22 C          -1.4297    4.3322   -4.6800 C.ar    1  LIG11      -0.0164
     23 C          -1.9575    4.6579   -3.4318 C.ar    1  LIG11       0.1217
     24 C          -7.2319    6.9256   -1.8963 C.ar    1  LIG11      -0.0194
     25 C          -7.1874    4.8423   -0.6842 C.ar    1  LIG11      -0.0194
     26 O          -5.0128   -2.6246   -5.9827 O.3     1  LIG11      -0.4526
     27 C          -4.7248   -2.6497   -4.5698 C.3     1  LIG11       0.2332
     28 O          -1.0451    4.9915   -2.4671 O.3     1  LIG11      -0.4893
     29 C          -7.4623    6.2103   -0.7181 C.ar    1  LIG11       0.1201
     30 C          -1.3771    4.6091   -1.1241 C.3     1  LIG11       0.0946
     31 O          -7.9617    6.9524    0.3191 O.3     1  LIG11      -0.4951
     32 C          -1.7726    5.8501   -0.3306 C.3     1  LIG11      -0.0281
     33 C          -0.1270    3.9735   -0.5201 C.3     1  LIG11      -0.0281
     34 C          -7.9605    6.3252    1.5947 C.3     1  LIG11       0.0788
@<TRIPOS>BOND
     1     1     4    1
     2     1     2    1
     3     1     3    1
     4     2     5    2
     5     2     6    1
     6     3     8   ar
     7     3     7   ar
     8     4     9    1
     9     5    10    1
    10     5    11    1
    11     6    13   ar
    12     6    12   ar
    13     7    14   ar
    14     8    15   ar
    15     9    16   ar
    16     9    10   ar
    17    10    17   ar
    18    11    18   ar
    19    11    19   ar
    20    14    21    1
    21    14    20   ar
    22    15    20   ar
    23    16    22   ar
    24    17    23   ar
    25    18    24   ar
    26    19    25   ar
    27    20    26    1
    28    21    27    1
    29    22    23   ar
    30    23    28    1
    31    24    29   ar
    32    25    29   ar
    33    26    27    1
    34    28    30    1
    35    29    31    1
    36    30    33    1
    37    30    32    1
    38    31    34    1
@<TRIPOS>MOLECULE
../ET1/ET1_17-21_50CONFORMERS.pdb
 47 48 0 0 0
SMALL
GASTEIGER

@<TRIPOS>ATOM
      1  N         -4.4560   -0.3720   -1.4100 N.3    17  LEU17      -0.1231
      2  CA        -5.7750   -0.9810   -1.6350 C.3    17  LEU17       0.1693
      3  CB        -6.1140   -1.8820   -0.4900 C.3    17  LEU17       0.0284
      4  CG        -7.2650   -2.7690   -0.6600 C.3    17  LEU17       0.0019
      5  CD1       -7.3900   -3.4950   -2.0480 C.3    17  LEU17       0.0001
      6  CD2       -7.1410   -3.7620    0.4720 C.3    17  LEU17       0.0001
      7  C         -6.8180    0.1010   -1.9410 C.2    17  LEU17       0.2592
      8  O         -7.4610    0.1730   -2.9890 O.2    17  LEU17      -0.2718
      9  N         -6.9410    1.0200   -1.0240 N.am   18  ASP18      -0.1960
     10  CA        -7.8920    2.0760   -0.9710 C.3    18  ASP18       0.1840
     11  CB        -9.1410    1.7570   -0.1550 C.3    18  ASP18       0.1450
     12  CG       -10.1710    2.8850   -0.2460 C.2    18  ASP18       0.3671
     13  OD1      -10.6760    3.2080   -1.3630 O.co2  18  ASP18      -0.2456
     14  OD2      -10.4770    3.5040    0.7690 O.co2  18  ASP18      -0.2456
     15  C         -7.3040    3.3930   -0.4690 C.2    18  ASP18       0.2622
     16  O         -7.4930    4.4290   -1.1530 O.2    18  ASP18      -0.2715
     17  N         -6.6350    3.4290    0.6890 N.am   19  ILE19      -0.1963
     18  CA        -6.1350    4.6890    1.3090 C.3    19  ILE19       0.1727
     19  CB        -5.6040    4.3930    2.7640 C.3    19  ILE19       0.0290
     20  CG2       -4.2170    3.6840    2.7970 C.3    19  ILE19       0.0023
     21  CG1       -5.5280    5.7000    3.6000 C.3    19  ILE19       0.0022
     22  CD1       -5.4860    5.6870    5.1130 C.3    19  ILE19       0.0001
     23  C         -5.1070    5.4490    0.5370 C.2    19  ILE19       0.2616
     24  O         -5.1960    6.6560    0.4640 O.2    19  ILE19      -0.2715
     25  N         -4.2840    4.6940   -0.2350 N.am   20  ILE20      -0.1963
     26  CA        -3.4500    5.2380   -1.3280 C.3    20  ILE20       0.1727
     27  CB        -1.9560    5.2450   -0.9570 C.3    20  ILE20       0.0290
     28  CG2       -1.7080    6.3380    0.0690 C.3    20  ILE20       0.0023
     29  CG1       -1.3600    3.9820   -0.3460 C.3    20  ILE20       0.0022
     30  CD1        0.1990    3.7350   -0.5770 C.3    20  ILE20       0.0001
     31  C         -3.7190    4.5000   -2.6710 C.2    20  ILE20       0.2617
     32  O         -3.3930    3.3260   -2.8100 O.2    20  ILE20      -0.2715
     33  N         -4.3990    5.2200   -3.5400 N.am   21  TRP21      -0.1941
     34  CA        -4.8320    4.8230   -4.8440 C.3    21  TRP21       0.1982
     35  CB        -6.1240    4.0010   -4.7070 C.3    21  TRP21       0.0394
     36  CG        -6.3580    2.9820   -5.7480 C.3    21  TRP21       0.0475
     37  CD1       -7.0560    3.2340   -6.9070 C.3    21  TRP21       0.1166
     38  NE1       -7.0290    2.1090   -7.7360 N.pl3  21  TRP21      -0.2376
     39  CE2       -6.3000    1.0730   -7.1490 C.ar   21  TRP21       0.0614
     40  CZ2       -5.8740   -0.1620   -7.5750 C.ar   21  TRP21       0.0158
     41  CH2       -5.1360   -1.0060   -6.7390 C.ar   21  TRP21       0.0013
     42  CZ3       -4.8080   -0.5800   -5.4470 C.ar   21  TRP21      -0.0002
     43  CE3       -5.1980    0.7150   -5.0400 C.ar   21  TRP21      -0.0030
     44  CD2       -5.8780    1.5800   -5.8800 C.ar   21  TRP21      -0.0059
     45  C         -4.7330    5.9630   -5.8230 C.2    21  TRP21       0.3842
     46  O         -5.4460    6.9620   -5.6560 O.co2  21  TRP21      -0.2437
     47  OXT       -4.0270    5.7560   -6.8330 O.co2  21  TRP21      -0.2437
@<TRIPOS>BOND
     1    40    41   ar
     2    40    39   ar
     3    41    42   ar
     4    39    38    1
     5    39    44   ar
     6    42    43   ar
     7    38    37    1
     8    43    44   ar
     9    44    36    1
    10    37    36    1
    11    36    35    1
    12    47    45   ar
    13     5     4    1
    14    35    34    1
    15    45    34    1
    16    45    46   ar
    17    34    33    1
    18     8     7    2
    19     4     6    1
    20     4     3    1
    21     2     3    1
    22     2     1    1
    23     2     7    1
    24     7     9   am
    25    33    31   am
    26    32    31    2
    27    31    26    1
    28     9    10    1
    29    10    11    1
    30    10    15    1
    31    26    27    1
    32    26    25    1
    33    11    12    1
    34    13    12   ar
    35    27    29    1
    36    27    28    1
    37    29    30    1
    38    16    15    2
    39    15    17   am
    40    12    14   ar
    41    25    23   am
    42    17    18    1
    43    23    24    2
    44    23    18    1
    45    18    19    1
    46    19    21    1
    47    19    20    1
    48    21    22    1
