@<TRIPOS>MOLECULE
../ET1/ET1_17-21_50CONFORMERS_NOBACKBONE.pdb
 26 23 0 0 0
SMALL
GASTEIGER

@<TRIPOS>ATOM
      1  CB        -5.6560   -2.0130   -0.9140 C.3    17  LEU17       0.0000
      2  CG        -7.0430   -2.5080   -0.6020 C.3    17  LEU17       0.0000
      3  CD1       -7.7900   -3.0040   -1.8120 C.3    17  LEU17       0.0000
      4  CD2       -7.1720   -3.5500    0.4900 C.3    17  LEU17       0.0000
      5  CB        -8.8680    1.4860    0.1670 C.3    18  ASP18       0.1258
      6  CG       -10.2320    2.1200   -0.0550 C.2    18  ASP18       0.3654
      7  OD1      -10.8920    1.6370   -1.0120 O.co2  18  ASP18      -0.2456
      8  OD2      -10.6300    3.0590    0.6490 O.co2  18  ASP18      -0.2456
      9  CB        -5.9660    4.7960    2.7400 C.3    19  ILE19       0.0000
     10  CG2       -4.6800    4.0440    2.8270 C.3    19  ILE19       0.0000
     11  CG1       -5.7570    6.1350    3.5640 C.3    19  ILE19       0.0000
     12  CD1       -6.9460    7.0030    3.7030 C.3    19  ILE19       0.0000
     13  CB        -2.2100    5.4370   -1.2690 C.3    20  ILE20       0.0000
     14  CG2       -1.8610    6.5760   -0.2560 C.3    20  ILE20       0.0000
     15  CG1       -1.5260    4.1100   -0.9140 C.3    20  ILE20       0.0000
     16  CD1       -0.0200    4.2560   -0.6990 C.3    20  ILE20       0.0000
     17  CB        -6.7280    3.3830   -4.1640 C.3    21  TRP21       0.0066
     18  CG        -7.1910    2.3800   -5.1940 C.3    21  TRP21       0.0452
     19  CD1       -8.2010    2.5130   -6.1000 C.3    21  TRP21       0.1165
     20  NE1       -8.2490    1.3760   -6.9010 N.pl3  21  TRP21      -0.2376
     21  CE2       -7.1040    0.6070   -6.6890 C.ar   21  TRP21       0.0614
     22  CZ2       -6.5890   -0.5400   -7.3230 C.ar   21  TRP21       0.0158
     23  CH2       -5.3990   -1.1090   -6.8770 C.ar   21  TRP21       0.0013
     24  CZ3       -4.8390   -0.5650   -5.6710 C.ar   21  TRP21      -0.0002
     25  CE3       -5.4260    0.5390   -4.9710 C.ar   21  TRP21      -0.0030
     26  CD2       -6.4960    1.1980   -5.5550 C.ar   21  TRP21      -0.0059
@<TRIPOS>BOND
     1    22    23   ar
     2    22    21   ar
     3    23    24   ar
     4    21    20    1
     5    21    26   ar
     6    24    25   ar
     7    20    19    1
     8    25    26   ar
     9    26    18    1
    10    19    18    1
    11    18    17    1
    12     3     2    1
    13     2     4    1
    14     2     1    1
    15     5     6    1
    16     7     6   ar
    17    13    15    1
    18    13    14    1
    19    15    16    1
    20     6     8   ar
    21     9    11    1
    22     9    10    1
    23    11    12    1
@<TRIPOS>MOLECULE
9910224
 30 33 0 0 0
SMALL
GASTEIGER

@<TRIPOS>ATOM
      1 S          -6.0863    0.4272   -1.6941 S.O2    1  LIG11       0.0756
      2 O          -6.0636    0.1253   -0.2769 O.2     1  LIG11      -0.1499
      3 O          -6.8971   -0.3808   -2.5760 O.2     1  LIG11      -0.1499
      4 O          -5.8120    2.9323    0.7564 O.3     1  LIG11      -0.4773
      5 O          -8.5879    0.0867   -8.2726 O.2     1  LIG11      -0.4229
      6 N          -6.6190    2.0180   -1.8701 N.pl3   1  LIG11      -0.1951
      7 N          -2.6977    0.1728   -3.9292 N.ar    1  LIG11      -0.2530
      8 N          -5.1185    3.4739   -2.7793 N.ar    1  LIG11      -0.2325
      9 N          -4.1337    4.2621   -0.2392 N.ar    1  LIG11      -0.2137
     10 N          -7.1351   -1.2344   -9.3447 N.ar    1  LIG11      -0.1076
     11 N          -8.2811   -1.1506  -10.1100 N.ar    1  LIG11      -0.1156
     12 C          -4.4048    0.3971   -2.2601 C.ar    1  LIG11       0.1344
     13 C          -4.0243    0.2408   -3.5928 C.ar    1  LIG11       0.0975
     14 C          -4.8915    0.0931   -4.7799 C.ar    1  LIG11       0.0023
     15 C          -3.4051    0.4448   -1.2697 C.ar    1  LIG11      -0.0315
     16 C          -5.8745    1.0246   -5.1397 C.ar    1  LIG11      -0.0518
     17 C          -4.6880   -0.9878   -5.6587 C.ar    1  LIG11      -0.0518
     18 C          -5.6615    3.0285   -1.6274 C.ar    1  LIG11       0.2006
     19 C          -6.5030   -0.2684   -7.1068 C.ar    1  LIG11       0.0385
     20 C          -6.6896    0.8338   -6.2652 C.ar    1  LIG11      -0.0488
     21 C          -5.4702   -1.1616   -6.8073 C.ar    1  LIG11      -0.0488
     22 C          -2.0650    0.3674   -1.6207 C.ar    1  LIG11      -0.0417
     23 C          -1.7629    0.2345   -2.9573 C.ar    1  LIG11       0.0284
     24 C          -5.1896    3.4192   -0.3702 C.ar    1  LIG11       0.2574
     25 C          -7.3439   -0.4956   -8.2726 C.ar    1  LIG11       0.2480
     26 C          -3.5712    4.7000   -1.3938 C.ar    1  LIG11       0.0602
     27 C          -4.0651    4.3113   -2.6351 C.ar    1  LIG11       0.0510
     28 C          -2.3759    5.5954   -1.3006 C.3     1  LIG11      -0.0208
     29 C          -5.3603    3.5417    1.9599 C.3     1  LIG11       0.0805
     30 C          -9.1060   -0.3827   -9.4402 C.ar    1  LIG11       0.2047
@<TRIPOS>BOND
     1     1     2    2
     2     1     3    2
     3     1     6    1
     4     1    12    1
     5     4    24    1
     6     4    29    1
     7     5    25   ar
     8     5    30   ar
     9     6    18    1
    10     7    13   ar
    11     7    23   ar
    12     8    18   ar
    13     8    27   ar
    14     9    24   ar
    15     9    26   ar
    16    10    11   ar
    17    10    25   ar
    18    11    30   ar
    19    12    13   ar
    20    12    15   ar
    21    13    14    1
    22    14    16   ar
    23    14    17   ar
    24    15    22   ar
    25    16    20   ar
    26    17    21   ar
    27    18    24   ar
    28    19    20   ar
    29    19    21   ar
    30    19    25    1
    31    22    23   ar
    32    26    27   ar
    33    26    28    1
@<TRIPOS>MOLECULE
../ET1/ET1_17-21_50CONFORMERS.pdb
 47 48 0 0 0
SMALL
GASTEIGER

@<TRIPOS>ATOM
      1  N         -4.2010   -0.1720   -1.7670 N.3    17  LEU17      -0.1231
      2  CA        -5.4580   -0.8500   -1.9110 C.3    17  LEU17       0.1693
      3  CB        -5.6560   -2.0130   -0.9140 C.3    17  LEU17       0.0284
      4  CG        -7.0430   -2.5080   -0.6020 C.3    17  LEU17       0.0019
      5  CD1       -7.7900   -3.0040   -1.8120 C.3    17  LEU17       0.0001
      6  CD2       -7.1720   -3.5500    0.4900 C.3    17  LEU17       0.0001
      7  C         -6.6890    0.1240   -1.9280 C.2    17  LEU17       0.2592
      8  O         -7.5330    0.1470   -2.8350 O.2    17  LEU17      -0.2718
      9  N         -6.7310    1.0230   -0.9570 N.am   18  ASP18      -0.1960
     10  CA        -7.8670    2.0040   -0.9130 C.3    18  ASP18       0.1840
     11  CB        -8.8680    1.4860    0.1670 C.3    18  ASP18       0.1450
     12  CG       -10.2320    2.1200   -0.0550 C.2    18  ASP18       0.3671
     13  OD1      -10.8920    1.6370   -1.0120 O.co2  18  ASP18      -0.2456
     14  OD2      -10.6300    3.0590    0.6490 O.co2  18  ASP18      -0.2456
     15  C         -7.4570    3.4490   -0.4690 C.2    18  ASP18       0.2622
     16  O         -7.5790    4.4230   -1.2060 O.2    18  ASP18      -0.2715
     17  N         -6.7830    3.6660    0.6670 N.am   19  ILE19      -0.1963
     18  CA        -6.4730    4.9620    1.2510 C.3    19  ILE19       0.1727
     19  CB        -5.9660    4.7960    2.7400 C.3    19  ILE19       0.0290
     20  CG2       -4.6800    4.0440    2.8270 C.3    19  ILE19       0.0023
     21  CG1       -5.7570    6.1350    3.5640 C.3    19  ILE19       0.0022
     22  CD1       -6.9460    7.0030    3.7030 C.3    19  ILE19       0.0001
     23  C         -5.5000    5.7810    0.3390 C.2    19  ILE19       0.2616
     24  O         -5.7690    6.9650   -0.0340 O.2    19  ILE19      -0.2715
     25  N         -4.4450    5.0980   -0.2040 N.am   20  ILE20      -0.1963
     26  CA        -3.7630    5.4400   -1.4580 C.3    20  ILE20       0.1727
     27  CB        -2.2100    5.4370   -1.2690 C.3    20  ILE20       0.0290
     28  CG2       -1.8610    6.5760   -0.2560 C.3    20  ILE20       0.0023
     29  CG1       -1.5260    4.1100   -0.9140 C.3    20  ILE20       0.0022
     30  CD1       -0.0200    4.2560   -0.6990 C.3    20  ILE20       0.0001
     31  C         -4.2760    4.3340   -2.4360 C.2    20  ILE20       0.2617
     32  O         -4.0530    3.1690   -2.2790 O.2    20  ILE20      -0.2715
     33  N         -4.9410    4.8110   -3.4460 N.am   21  TRP21      -0.1941
     34  CA        -5.4130    4.0870   -4.6560 C.3    21  TRP21       0.1982
     35  CB        -6.7280    3.3830   -4.1640 C.3    21  TRP21       0.0394
     36  CG        -7.1910    2.3800   -5.1940 C.3    21  TRP21       0.0475
     37  CD1       -8.2010    2.5130   -6.1000 C.3    21  TRP21       0.1166
     38  NE1       -8.2490    1.3760   -6.9010 N.pl3  21  TRP21      -0.2376
     39  CE2       -7.1040    0.6070   -6.6890 C.ar   21  TRP21       0.0614
     40  CZ2       -6.5890   -0.5400   -7.3230 C.ar   21  TRP21       0.0158
     41  CH2       -5.3990   -1.1090   -6.8770 C.ar   21  TRP21       0.0013
     42  CZ3       -4.8390   -0.5650   -5.6710 C.ar   21  TRP21      -0.0002
     43  CE3       -5.4260    0.5390   -4.9710 C.ar   21  TRP21      -0.0030
     44  CD2       -6.4960    1.1980   -5.5550 C.ar   21  TRP21      -0.0059
     45  C         -5.6750    5.0260   -5.8140 C.2    21  TRP21       0.3842
     46  O         -6.3400    6.0940   -5.6060 O.co2  21  TRP21      -0.2437
     47  OXT       -5.1860    4.6870   -6.9310 O.co2  21  TRP21      -0.2437
@<TRIPOS>BOND
     1    40    41   ar
     2    40    39   ar
     3    41    42   ar
     4    39    38    1
     5    39    44   ar
     6    42    43   ar
     7    38    37    1
     8    43    44   ar
     9    44    36    1
    10    37    36    1
    11    36    35    1
    12    47    45   ar
    13     5     4    1
    14    35    34    1
    15    45    34    1
    16    45    46   ar
    17    34    33    1
    18     8     7    2
    19     4     6    1
    20     4     3    1
    21     2     3    1
    22     2     1    1
    23     2     7    1
    24     7     9   am
    25    33    31   am
    26    32    31    2
    27    31    26    1
    28     9    10    1
    29    10    11    1
    30    10    15    1
    31    26    27    1
    32    26    25    1
    33    11    12    1
    34    13    12   ar
    35    27    29    1
    36    27    28    1
    37    29    30    1
    38    16    15    2
    39    15    17   am
    40    12    14   ar
    41    25    23   am
    42    17    18    1
    43    23    24    2
    44    23    18    1
    45    18    19    1
    46    19    21    1
    47    19    20    1
    48    21    22    1
