@<TRIPOS>MOLECULE
../ET1/ET1_17-21_50CONFORMERS_NOBACKBONE.pdb
 26 23 0 0 0
SMALL
GASTEIGER

@<TRIPOS>ATOM
      1  CB        -6.1060   -1.8910   -0.6040 C.3    17  LEU17       0.0000
      2  CG        -7.3260   -2.7700   -0.5110 C.3    17  LEU17       0.0000
      3  CD1       -7.5330   -3.5860   -1.8080 C.3    17  LEU17       0.0000
      4  CD2       -7.1750   -3.7620    0.6380 C.3    17  LEU17       0.0000
      5  CB        -9.6350    1.1900    0.6620 C.3    18  ASP18       0.1258
      6  CG       -10.7540    2.0760    1.0750 C.2    18  ASP18       0.3654
      7  OD1      -10.7090    2.5980    2.1810 O.co2  18  ASP18      -0.2456
      8  OD2      -11.7750    2.1680    0.3490 O.co2  18  ASP18      -0.2456
      9  CB        -5.6060    4.1530    3.1840 C.3    19  ILE19       0.0000
     10  CG2       -5.0710    5.4630    3.7780 C.3    19  ILE19       0.0000
     11  CG1       -6.3130    3.3110    4.2570 C.3    19  ILE19       0.0000
     12  CD1       -7.4260    3.9890    5.0080 C.3    19  ILE19       0.0000
     13  CB        -2.4570    5.3180   -0.3440 C.3    20  ILE20       0.0000
     14  CG2       -2.2540    6.0130    0.9630 C.3    20  ILE20       0.0000
     15  CG1       -1.6850    3.9000   -0.3880 C.3    20  ILE20       0.0000
     16  CD1       -0.1170    4.0540   -0.3600 C.3    20  ILE20       0.0000
     17  CB        -5.5920    5.9330   -5.0080 C.3    21  TRP21       0.0066
     18  CG        -6.7500    5.3280   -4.2680 C.3    21  TRP21       0.0452
     19  CD1       -7.2600    5.6560   -3.0690 C.3    21  TRP21       0.1165
     20  NE1       -8.2550    4.7710   -2.7510 N.pl3  21  TRP21      -0.2376
     21  CE2       -8.5230    3.9140   -3.8170 C.ar   21  TRP21       0.0614
     22  CZ2       -9.4410    2.8940   -4.0290 C.ar   21  TRP21       0.0158
     23  CH2       -9.4520    2.1750   -5.2310 C.ar   21  TRP21       0.0013
     24  CZ3       -8.7260    2.6660   -6.3270 C.ar   21  TRP21      -0.0002
     25  CE3       -7.8990    3.7620   -6.1480 C.ar   21  TRP21      -0.0030
     26  CD2       -7.6800    4.3580   -4.8730 C.ar   21  TRP21      -0.0059
@<TRIPOS>BOND
     1    22    23   ar
     2    22    21   ar
     3    23    24   ar
     4    21    20    1
     5    21    26   ar
     6    24    25   ar
     7    20    19    1
     8    25    26   ar
     9    26    18    1
    10    19    18    1
    11    18    17    1
    12     3     2    1
    13     2     4    1
    14     2     1    1
    15     5     6    1
    16     7     6   ar
    17    13    15    1
    18    13    14    1
    19    15    16    1
    20     6     8   ar
    21     9    11    1
    22     9    10    1
    23    11    12    1
@<TRIPOS>MOLECULE
46174111
 29 32 0 0 0
SMALL
GASTEIGER

@<TRIPOS>ATOM
      1 CL         -5.7744    0.3933   -2.0825 Cl      1  LIG11      -0.0762
      2 S          -5.0090    3.4654   -0.0548 S.O2    1  LIG11       0.0758
      3 S          -4.1196    3.8035   -4.2027 S.2     1  LIG11      -0.0918
      4 O         -10.8963    2.2611   -3.9986 O.3     1  LIG11      -0.4526
      5 O         -10.5310    1.3608   -6.2057 O.3     1  LIG11      -0.4526
      6 O          -6.9733    5.0251   -1.8025 O.2     1  LIG11      -0.2911
      7 O          -5.0084    4.8582    0.3331 O.2     1  LIG11      -0.1499
      8 O          -4.1546    2.5134    0.6249 O.2     1  LIG11      -0.1499
      9 O          -7.2924    1.0635    1.4319 O.2     1  LIG11      -0.3364
     10 N          -6.6028    2.9061   -0.0214 N.pl3   1  LIG11      -0.1821
     11 N          -7.2593   -0.3206    1.4548 N.ar    1  LIG11      -0.0798
     12 C          -7.8298    4.1578   -4.8020 C.ar    1  LIG11      -0.0333
     13 C          -6.9269    5.2013   -4.1688 C.3     1  LIG11       0.0366
     14 C          -7.6419    3.6545   -6.1212 C.ar    1  LIG11      -0.0432
     15 C          -4.4140    3.4830   -1.6874 C.ar    1  LIG11       0.1261
     16 C          -5.0586    4.0447   -2.7822 C.ar    1  LIG11       0.0814
     17 C          -8.9397    3.7135   -4.0483 C.ar    1  LIG11      -0.0123
     18 C          -6.3334    4.7653   -2.8278 C.2     1  LIG11       0.1759
     19 C          -9.7903    2.7785   -4.5959 C.ar    1  LIG11       0.1665
     20 C          -9.5848    2.2695   -5.8501 C.ar    1  LIG11       0.1665
     21 C          -8.5255    2.6783   -6.6284 C.ar    1  LIG11      -0.0130
     22 C          -6.5105    4.0780   -7.0203 C.3     1  LIG11      -0.0393
     23 C          -3.1542    2.8889   -2.0293 C.ar    1  LIG11      -0.0273
     24 C         -11.3738    1.3783   -5.0348 C.3     1  LIG11       0.2332
     25 C          -2.8840    2.9829   -3.3717 C.ar    1  LIG11      -0.0217
     26 C          -6.7251    1.5210    0.2805 C.ar    1  LIG11       0.2554
     27 C          -6.3840    0.4403   -0.5011 C.ar    1  LIG11       0.1262
     28 C          -6.7090   -0.6869    0.2899 C.ar    1  LIG11       0.1009
     29 C          -6.5398   -2.1212   -0.0386 C.3     1  LIG11      -0.0176
@<TRIPOS>BOND
     1     1    27    1
     2     2    10    1
     3     2    15    1
     4     2     8    2
     5     2     7    2
     6     3    16   ar
     7     3    25   ar
     8     4    24    1
     9     4    19    1
    10     5    20    1
    11     5    24    1
    12     6    18    2
    13     9    11   ar
    14     9    26   ar
    15    10    26    1
    16    11    28   ar
    17    12    17   ar
    18    12    14   ar
    19    13    18    1
    20    13    12    1
    21    14    21   ar
    22    14    22    1
    23    15    23   ar
    24    15    16   ar
    25    16    18    1
    26    17    19   ar
    27    19    20   ar
    28    20    21   ar
    29    23    25   ar
    30    26    27   ar
    31    27    28   ar
    32    28    29    1
@<TRIPOS>MOLECULE
../ET1/ET1_17-21_50CONFORMERS.pdb
 47 48 0 0 0
SMALL
GASTEIGER

@<TRIPOS>ATOM
      1  N         -4.8600   -0.0130   -1.6420 N.3    17  LEU17      -0.1231
      2  CA        -6.1110   -0.7850   -1.7070 C.3    17  LEU17       0.1693
      3  CB        -6.1060   -1.8910   -0.6040 C.3    17  LEU17       0.0284
      4  CG        -7.3260   -2.7700   -0.5110 C.3    17  LEU17       0.0019
      5  CD1       -7.5330   -3.5860   -1.8080 C.3    17  LEU17       0.0001
      6  CD2       -7.1750   -3.7620    0.6380 C.3    17  LEU17       0.0001
      7  C         -7.3910    0.1230   -1.5920 C.2    17  LEU17       0.2592
      8  O         -8.2890    0.1400   -2.4470 O.2    17  LEU17      -0.2718
      9  N         -7.4630    1.0230   -0.5710 N.am   18  ASP18      -0.1960
     10  CA        -8.6060    1.9280   -0.1770 C.3    18  ASP18       0.1840
     11  CB        -9.6350    1.1900    0.6620 C.3    18  ASP18       0.1450
     12  CG       -10.7540    2.0760    1.0750 C.2    18  ASP18       0.3671
     13  OD1      -10.7090    2.5980    2.1810 O.co2  18  ASP18      -0.2456
     14  OD2      -11.7750    2.1680    0.3490 O.co2  18  ASP18      -0.2456
     15  C         -8.1270    3.2690    0.4310 C.2    18  ASP18       0.2622
     16  O         -8.4550    4.3680   -0.0320 O.2    18  ASP18      -0.2715
     17  N         -7.2680    3.2890    1.4350 N.am   19  ILE19      -0.1963
     18  CA        -6.6180    4.4780    2.0110 C.3    19  ILE19       0.1727
     19  CB        -5.6060    4.1530    3.1840 C.3    19  ILE19       0.0290
     20  CG2       -5.0710    5.4630    3.7780 C.3    19  ILE19       0.0023
     21  CG1       -6.3130    3.3110    4.2570 C.3    19  ILE19       0.0022
     22  CD1       -7.4260    3.9890    5.0080 C.3    19  ILE19       0.0001
     23  C         -5.8570    5.2320    0.9330 C.2    19  ILE19       0.2616
     24  O         -6.1630    6.4430    0.7480 O.2    19  ILE19      -0.2715
     25  N         -4.8930    4.6150    0.2110 N.am   20  ILE20      -0.1963
     26  CA        -4.0370    5.3340   -0.7450 C.3    20  ILE20       0.1727
     27  CB        -2.4570    5.3180   -0.3440 C.3    20  ILE20       0.0290
     28  CG2       -2.2540    6.0130    0.9630 C.3    20  ILE20       0.0023
     29  CG1       -1.6850    3.9000   -0.3880 C.3    20  ILE20       0.0022
     30  CD1       -0.1170    4.0540   -0.3600 C.3    20  ILE20       0.0001
     31  C         -4.2350    4.7430   -2.1630 C.2    20  ILE20       0.2617
     32  O         -4.5360    3.5640   -2.2730 O.2    20  ILE20      -0.2715
     33  N         -4.0240    5.5760   -3.2320 N.am   21  TRP21      -0.1941
     34  CA        -4.2060    5.3440   -4.6130 C.3    21  TRP21       0.1982
     35  CB        -5.5920    5.9330   -5.0080 C.3    21  TRP21       0.0394
     36  CG        -6.7500    5.3280   -4.2680 C.3    21  TRP21       0.0475
     37  CD1       -7.2600    5.6560   -3.0690 C.3    21  TRP21       0.1166
     38  NE1       -8.2550    4.7710   -2.7510 N.pl3  21  TRP21      -0.2376
     39  CE2       -8.5230    3.9140   -3.8170 C.ar   21  TRP21       0.0614
     40  CZ2       -9.4410    2.8940   -4.0290 C.ar   21  TRP21       0.0158
     41  CH2       -9.4520    2.1750   -5.2310 C.ar   21  TRP21       0.0013
     42  CZ3       -8.7260    2.6660   -6.3270 C.ar   21  TRP21      -0.0002
     43  CE3       -7.8990    3.7620   -6.1480 C.ar   21  TRP21      -0.0030
     44  CD2       -7.6800    4.3580   -4.8730 C.ar   21  TRP21      -0.0059
     45  C         -3.2090    5.9310   -5.5650 C.2    21  TRP21       0.3842
     46  O         -2.3720    6.7390   -5.0730 O.co2  21  TRP21      -0.2437
     47  OXT       -3.1210    5.4890   -6.7230 O.co2  21  TRP21      -0.2437
@<TRIPOS>BOND
     1    40    41   ar
     2    40    39   ar
     3    41    42   ar
     4    39    38    1
     5    39    44   ar
     6    42    43   ar
     7    38    37    1
     8    43    44   ar
     9    44    36    1
    10    37    36    1
    11    36    35    1
    12    47    45   ar
    13     5     4    1
    14    35    34    1
    15    45    34    1
    16    45    46   ar
    17    34    33    1
    18     8     7    2
    19     4     6    1
    20     4     3    1
    21     2     3    1
    22     2     1    1
    23     2     7    1
    24     7     9   am
    25    33    31   am
    26    32    31    2
    27    31    26    1
    28     9    10    1
    29    10    11    1
    30    10    15    1
    31    26    27    1
    32    26    25    1
    33    11    12    1
    34    13    12   ar
    35    27    29    1
    36    27    28    1
    37    29    30    1
    38    16    15    2
    39    15    17   am
    40    12    14   ar
    41    25    23   am
    42    17    18    1
    43    23    24    2
    44    23    18    1
    45    18    19    1
    46    19    21    1
    47    19    20    1
    48    21    22    1
