@<TRIPOS>MOLECULE
../ET1/ET1_17-21_50CONFORMERS_NOBACKBONE.pdb
 26 23 0 0 0
SMALL
GASTEIGER

@<TRIPOS>ATOM
      1  CB        -6.0690   -1.5340   -0.4290 C.3    17  LEU17       0.0000
      2  CG        -7.4460   -2.3870   -0.3620 C.3    17  LEU17       0.0000
      3  CD1       -7.8390   -3.1540   -1.6370 C.3    17  LEU17       0.0000
      4  CD2       -7.3840   -3.4030    0.8280 C.3    17  LEU17       0.0000
      5  CB        -9.1170    0.9980    1.4200 C.3    18  ASP18       0.1258
      6  CG       -10.4570    1.5230    1.8190 C.2    18  ASP18       0.3654
      7  OD1      -11.4330    1.0230    1.2040 O.co2  18  ASP18      -0.2456
      8  OD2      -10.4760    2.4590    2.6900 O.co2  18  ASP18      -0.2456
      9  CB        -5.4400    4.5410    3.4180 C.3    19  ILE19       0.0000
     10  CG2       -4.7070    5.8630    3.7870 C.3    19  ILE19       0.0000
     11  CG1       -6.0250    3.8070    4.6680 C.3    19  ILE19       0.0000
     12  CD1       -7.2770    4.5760    5.2140 C.3    19  ILE19       0.0000
     13  CB        -2.8920    5.8920   -0.7660 C.3    20  ILE20       0.0000
     14  CG2       -2.8650    7.1560    0.1470 C.3    20  ILE20       0.0000
     15  CG1       -1.9340    4.8790   -0.1830 C.3    20  ILE20       0.0000
     16  CD1       -0.4350    5.3070   -0.1380 C.3    20  ILE20       0.0000
     17  CB        -5.5320    4.7740   -5.4590 C.3    21  TRP21       0.0066
     18  CG        -6.5470    3.7050   -5.2780 C.3    21  TRP21       0.0452
     19  CD1       -7.2530    3.5580   -4.1800 C.3    21  TRP21       0.1165
     20  NE1       -8.0440    2.4430   -4.2810 N.pl3  21  TRP21      -0.2376
     21  CE2       -8.0940    1.9430   -5.5820 C.ar   21  TRP21       0.0614
     22  CZ2       -8.8120    0.9040   -6.2120 C.ar   21  TRP21       0.0158
     23  CH2       -8.5650    0.7020   -7.5970 C.ar   21  TRP21       0.0013
     24  CZ3       -7.6360    1.4850   -8.2850 C.ar   21  TRP21      -0.0002
     25  CE3       -6.8670    2.4090   -7.5480 C.ar   21  TRP21      -0.0030
     26  CD2       -7.0830    2.7280   -6.2060 C.ar   21  TRP21      -0.0059
@<TRIPOS>BOND
     1    22    23   ar
     2    22    21   ar
     3    23    24   ar
     4    21    20    1
     5    21    26   ar
     6    24    25   ar
     7    20    19    1
     8    25    26   ar
     9    26    18    1
    10    19    18    1
    11    18    17    1
    12     3     2    1
    13     2     4    1
    14     2     1    1
    15     5     6    1
    16     7     6   ar
    17    13    15    1
    18    13    14    1
    19    15    16    1
    20     6     8   ar
    21     9    11    1
    22     9    10    1
    23    11    12    1
@<TRIPOS>MOLECULE
2-[[2-[2-butyl-4-[(Z)-2-carboxy-3-(6-methoxy-1,3-benzodioxol-5-yl)prop-1-enyl]pyrazol-3-yl]-5-methoxyphenoxy]methyl]benzoic acid
 45 49 0 0 0
SMALL
GASTEIGER

@<TRIPOS>ATOM
      1 O          -6.4550    0.3253    1.5703 O.3     1  LIG11      -0.4866
      2 O          -6.9246    0.3317   -9.3660 O.3     1  LIG11      -0.4526
      3 O          -9.2252   -0.1736   -8.8409 O.3     1  LIG11      -0.4525
      4 O          -9.1761    2.7314   -4.9883 O.3     1  LIG11      -0.4947
      5 O          -3.7798    3.8899    3.1717 O.3     1  LIG11      -0.4950
      6 O          -6.1376    6.1054   -4.8761 O.co2   1  LIG11      -0.5449
      7 O          -7.9942    5.8232   -3.5792 O.co2   1  LIG11      -0.5449
      8 O         -10.0311    1.6541    3.5306 O.co2   1  LIG11      -0.5446
      9 O          -9.4051    3.3430    4.9076 O.co2   1  LIG11      -0.5446
     10 N          -6.6573    0.1121   -1.4666 N.ar    1  LIG11      -0.2630
     11 N          -6.2856   -0.3008   -2.7050 N.ar    1  LIG11      -0.1785
     12 C          -6.3800    1.4687   -1.2816 C.ar    1  LIG11       0.0795
     13 C          -7.7983   -0.5989   -0.8962 C.3     1  LIG11       0.0422
     14 C          -7.5094   -2.0479   -0.4905 C.3     1  LIG11      -0.0336
     15 C          -6.5350    1.9628   -2.5902 C.ar    1  LIG11       0.0207
     16 C          -5.8771    2.1058   -0.0241 C.ar    1  LIG11       0.0425
     17 C          -7.5204   -3.0116   -1.6859 C.3     1  LIG11      -0.0542
     18 C          -6.3451    0.8301   -3.4069 C.ar    1  LIG11       0.0571
     19 C          -6.7747    3.3217   -2.9827 C.2     1  LIG11      -0.0459
     20 C          -6.2745    3.3242   -5.5135 C.3     1  LIG11       0.0029
     21 C          -5.8467    1.5256    1.2644 C.ar    1  LIG11       0.1336
     22 C          -6.7108    3.9041   -4.2011 C.2     1  LIG11      -0.0200
     23 C          -7.2011    2.4189   -6.3240 C.ar    1  LIG11       0.0023
     24 C          -5.2124    3.3534   -0.1507 C.ar    1  LIG11      -0.0456
     25 C          -7.3917   -4.4629   -1.2537 C.3     1  LIG11      -0.0652
     26 C          -5.1064    2.1261    2.3038 C.ar    1  LIG11       0.0224
     27 C          -8.5536    2.1111   -6.0349 C.ar    1  LIG11       0.1273
     28 C          -6.6090    1.8255   -7.4653 C.ar    1  LIG11      -0.0092
     29 C          -4.5503    3.9853    0.9086 C.ar    1  LIG11      -0.0191
     30 C          -7.3559    0.9703   -8.2453 C.ar    1  LIG11       0.1667
     31 C          -4.4954    3.3583    2.1344 C.ar    1  LIG11       0.1236
     32 C          -8.6624    0.6835   -7.9462 C.ar    1  LIG11       0.1697
     33 C          -9.2917    1.2424   -6.8576 C.ar    1  LIG11       0.0258
     34 C          -6.9897    5.4245   -4.2287 C.2     1  LIG11       0.0680
     35 C          -7.6288    0.5305    2.4163 C.3     1  LIG11       0.1153
     36 C          -8.1164   -0.3877   -9.7363 C.3     1  LIG11       0.2332
     37 C          -7.3323    0.5433    3.9079 C.ar    1  LIG11      -0.0016
     38 C          -8.0282    1.4086    4.7843 C.ar    1  LIG11       0.0037
     39 C          -6.3315   -0.2968    4.4346 C.ar    1  LIG11      -0.0547
     40 C          -9.8478    1.8427   -4.0996 C.3     1  LIG11       0.0788
     41 C          -7.6011    1.5097    6.1225 C.ar    1  LIG11      -0.0525
     42 C          -5.9421   -0.1988    5.7723 C.ar    1  LIG11      -0.0614
     43 C          -4.5543    4.8973    3.8242 C.3     1  LIG11       0.0788
     44 C          -6.5595    0.7235    6.6100 C.ar    1  LIG11      -0.0611
     45 C          -9.2430    2.2082    4.3586 C.2     1  LIG11       0.0720
@<TRIPOS>BOND
     1     1    35    1
     2     1    21    1
     3     2    36    1
     4     2    30    1
     5     3    32    1
     6     3    36    1
     7     4    27    1
     8     4    40    1
     9     5    31    1
    10     5    43    1
    11     6    34   ar
    12     7    34   ar
    13     8    45   ar
    14     9    45   ar
    15    10    11   ar
    16    10    12   ar
    17    10    13    1
    18    11    18   ar
    19    12    15   ar
    20    13    14    1
    21    14    17    1
    22    15    18   ar
    23    15    19    1
    24    16    24   ar
    25    16    21   ar
    26    16    12    1
    27    17    25    1
    28    19    22    2
    29    20    22    1
    30    20    23    1
    31    21    26   ar
    32    22    34    1
    33    23    28   ar
    34    23    27   ar
    35    24    29   ar
    36    26    31   ar
    37    27    33   ar
    38    28    30   ar
    39    29    31   ar
    40    30    32   ar
    41    32    33   ar
    42    35    37    1
    43    37    39   ar
    44    37    38   ar
    45    38    41   ar
    46    38    45    1
    47    39    42   ar
    48    41    44   ar
    49    42    44   ar
@<TRIPOS>MOLECULE
../ET1/ET1_17-21_50CONFORMERS.pdb
 47 48 0 0 0
SMALL
GASTEIGER

@<TRIPOS>ATOM
      1  N         -4.8380    0.2190   -1.4500 N.3    17  LEU17      -0.1231
      2  CA        -6.1180   -0.4840   -1.5530 C.3    17  LEU17       0.1693
      3  CB        -6.0690   -1.5340   -0.4290 C.3    17  LEU17       0.0284
      4  CG        -7.4460   -2.3870   -0.3620 C.3    17  LEU17       0.0019
      5  CD1       -7.8390   -3.1540   -1.6370 C.3    17  LEU17       0.0001
      6  CD2       -7.3840   -3.4030    0.8280 C.3    17  LEU17       0.0001
      7  C         -7.2430    0.4490   -1.2720 C.2    17  LEU17       0.2592
      8  O         -8.1430    0.4820   -2.1170 O.2    17  LEU17      -0.2718
      9  N         -7.2740    1.1700   -0.1630 N.am   18  ASP18      -0.1960
     10  CA        -8.4090    1.9290    0.4120 C.3    18  ASP18       0.1840
     11  CB        -9.1170    0.9980    1.4200 C.3    18  ASP18       0.1450
     12  CG       -10.4570    1.5230    1.8190 C.2    18  ASP18       0.3671
     13  OD1      -11.4330    1.0230    1.2040 O.co2  18  ASP18      -0.2456
     14  OD2      -10.4760    2.4590    2.6900 O.co2  18  ASP18      -0.2456
     15  C         -8.0090    3.3420    0.8700 C.2    18  ASP18       0.2622
     16  O         -8.4650    4.3500    0.2810 O.2    18  ASP18      -0.2715
     17  N         -7.0310    3.4560    1.7660 N.am   19  ILE19      -0.1963
     18  CA        -6.4400    4.7140    2.2270 C.3    19  ILE19       0.1727
     19  CB        -5.4400    4.5410    3.4180 C.3    19  ILE19       0.0290
     20  CG2       -4.7070    5.8630    3.7870 C.3    19  ILE19       0.0023
     21  CG1       -6.0250    3.8070    4.6680 C.3    19  ILE19       0.0022
     22  CD1       -7.2770    4.5760    5.2140 C.3    19  ILE19       0.0001
     23  C         -5.7030    5.4830    1.0410 C.2    19  ILE19       0.2616
     24  O         -5.8800    6.7320    0.9460 O.2    19  ILE19      -0.2715
     25  N         -4.8740    4.8150    0.2290 N.am   20  ILE20      -0.1963
     26  CA        -4.3690    5.4790   -1.0000 C.3    20  ILE20       0.1727
     27  CB        -2.8920    5.8920   -0.7660 C.3    20  ILE20       0.0290
     28  CG2       -2.8650    7.1560    0.1470 C.3    20  ILE20       0.0023
     29  CG1       -1.9340    4.8790   -0.1830 C.3    20  ILE20       0.0022
     30  CD1       -0.4350    5.3070   -0.1380 C.3    20  ILE20       0.0001
     31  C         -4.5040    4.6100   -2.2710 C.2    20  ILE20       0.2617
     32  O         -4.8620    3.4090   -2.1590 O.2    20  ILE20      -0.2715
     33  N         -4.2840    5.2770   -3.4300 N.am   21  TRP21      -0.1941
     34  CA        -4.1630    4.6270   -4.7570 C.3    21  TRP21       0.1982
     35  CB        -5.5320    4.7740   -5.4590 C.3    21  TRP21       0.0394
     36  CG        -6.5470    3.7050   -5.2780 C.3    21  TRP21       0.0475
     37  CD1       -7.2530    3.5580   -4.1800 C.3    21  TRP21       0.1166
     38  NE1       -8.0440    2.4430   -4.2810 N.pl3  21  TRP21      -0.2376
     39  CE2       -8.0940    1.9430   -5.5820 C.ar   21  TRP21       0.0614
     40  CZ2       -8.8120    0.9040   -6.2120 C.ar   21  TRP21       0.0158
     41  CH2       -8.5650    0.7020   -7.5970 C.ar   21  TRP21       0.0013
     42  CZ3       -7.6360    1.4850   -8.2850 C.ar   21  TRP21      -0.0002
     43  CE3       -6.8670    2.4090   -7.5480 C.ar   21  TRP21      -0.0030
     44  CD2       -7.0830    2.7280   -6.2060 C.ar   21  TRP21      -0.0059
     45  C         -3.0270    5.2180   -5.5660 C.2    21  TRP21       0.3842
     46  O         -3.1020    6.3970   -5.9350 O.co2  21  TRP21      -0.2437
     47  OXT       -2.0770    4.5110   -5.9220 O.co2  21  TRP21      -0.2437
@<TRIPOS>BOND
     1    40    41   ar
     2    40    39   ar
     3    41    42   ar
     4    39    38    1
     5    39    44   ar
     6    42    43   ar
     7    38    37    1
     8    43    44   ar
     9    44    36    1
    10    37    36    1
    11    36    35    1
    12    47    45   ar
    13     5     4    1
    14    35    34    1
    15    45    34    1
    16    45    46   ar
    17    34    33    1
    18     8     7    2
    19     4     6    1
    20     4     3    1
    21     2     3    1
    22     2     1    1
    23     2     7    1
    24     7     9   am
    25    33    31   am
    26    32    31    2
    27    31    26    1
    28     9    10    1
    29    10    11    1
    30    10    15    1
    31    26    27    1
    32    26    25    1
    33    11    12    1
    34    13    12   ar
    35    27    29    1
    36    27    28    1
    37    29    30    1
    38    16    15    2
    39    15    17   am
    40    12    14   ar
    41    25    23   am
    42    17    18    1
    43    23    24    2
    44    23    18    1
    45    18    19    1
    46    19    21    1
    47    19    20    1
    48    21    22    1
