@<TRIPOS>MOLECULE
../ET1/ET1_17-21_50CONFORMERS_NOBACKBONE.pdb
 26 23 0 0 0
SMALL
GASTEIGER

@<TRIPOS>ATOM
      1  CB        -6.1680   -1.6030   -0.8030 C.3    17  LEU17       0.0000
      2  CG        -7.3010   -2.6660   -0.9890 C.3    17  LEU17       0.0000
      3  CD1       -6.9130   -3.7970   -1.9630 C.3    17  LEU17       0.0000
      4  CD2       -7.4830   -3.2850    0.3370 C.3    17  LEU17       0.0000
      5  CB        -9.3270    1.4400   -1.0160 C.3    18  ASP18       0.1258
      6  CG       -10.6300    2.2090   -1.2500 C.2    18  ASP18       0.3654
      7  OD1      -11.0860    2.2920   -2.4490 O.co2  18  ASP18      -0.2456
      8  OD2      -11.2320    2.7130   -0.3400 O.co2  18  ASP18      -0.2456
      9  CB        -7.2480    4.9270    1.5370 C.3    19  ILE19       0.0000
     10  CG2       -6.8910    6.2680    2.1860 C.3    19  ILE19       0.0000
     11  CG1       -8.6480    4.4460    2.0860 C.3    19  ILE19       0.0000
     12  CD1       -8.7390    4.2860    3.5900 C.3    19  ILE19       0.0000
     13  CB        -2.4540    4.3920    0.1650 C.3    20  ILE20       0.0000
     14  CG2       -0.9250    4.3550   -0.2960 C.3    20  ILE20       0.0000
     15  CG1       -2.3670    5.0710    1.5310 C.3    20  ILE20       0.0000
     16  CD1       -3.4310    4.7860    2.5760 C.3    20  ILE20       0.0000
     17  CB        -4.3330    5.4990   -4.9470 C.3    21  TRP21       0.0066
     18  CG        -4.7390    4.8290   -6.1730 C.3    21  TRP21       0.0452
     19  CD1       -4.3830    5.3150   -7.3710 C.3    21  TRP21       0.1165
     20  NE1       -4.8840    4.4920   -8.3410 N.pl3  21  TRP21      -0.2376
     21  CE2       -5.5200    3.3960   -7.8350 C.ar   21  TRP21       0.0614
     22  CZ2       -6.2050    2.3030   -8.4580 C.ar   21  TRP21       0.0158
     23  CH2       -6.8150    1.3270   -7.6190 C.ar   21  TRP21       0.0013
     24  CZ3       -6.9630    1.6000   -6.2310 C.ar   21  TRP21      -0.0002
     25  CE3       -6.3060    2.7150   -5.5920 C.ar   21  TRP21      -0.0030
     26  CD2       -5.5210    3.6010   -6.4020 C.ar   21  TRP21      -0.0059
@<TRIPOS>BOND
     1    22    23   ar
     2    22    21   ar
     3    23    24   ar
     4    21    20    1
     5    21    26   ar
     6    24    25   ar
     7    20    19    1
     8    25    26   ar
     9    26    18    1
    10    19    18    1
    11    18    17    1
    12     3     2    1
    13     2     4    1
    14     2     1    1
    15     5     6    1
    16     7     6   ar
    17    13    15    1
    18    13    14    1
    19    15    16    1
    20     6     8   ar
    21     9    11    1
    22     9    10    1
    23    11    12    1
@<TRIPOS>MOLECULE
159594
 37 40 0 0 0
SMALL
GASTEIGER

@<TRIPOS>ATOM
      1 O          -3.6208    7.0919   -7.6557 O.co2   1  LIG11      -0.5493
      2 O          -5.0456    7.5382   -5.9280 O.co2   1  LIG11      -0.5493
      3 O          -5.7287    1.4763   -9.4792 O.3     1  LIG11      -0.4526
      4 O          -5.2077    3.1544   -1.9125 O.2     1  LIG11      -0.2697
      5 O          -6.9937   -0.1156   -8.1832 O.3     1  LIG11      -0.4526
      6 O           2.1521    4.3647   -5.2265 O.3     1  LIG11      -0.4951
      7 N          -4.2490    4.7782   -3.8744 N.3     1  LIG11       0.2481
      8 N          -4.4327    4.3349   -0.0862 N.am    1  LIG11      -0.2971
      9 C          -4.2139    5.3653   -6.1884 C.3     1  LIG11       0.0574
     10 C          -5.6282    4.8595   -5.8333 C.3     1  LIG11       0.0378
     11 C          -3.4296    5.5562   -4.8895 C.3     1  LIG11       0.0143
     12 C          -5.6716    5.0614   -4.3138 C.3     1  LIG11      -0.0230
     13 C          -5.9343    3.4536   -6.3614 C.ar    1  LIG11      -0.0347
     14 C          -1.9588    5.1783   -4.9932 C.ar    1  LIG11       0.0011
     15 C          -3.9738    5.1405   -2.4289 C.3     1  LIG11       0.0468
     16 C          -4.3201    6.8038   -6.6552 C.2     1  LIG11       0.0513
     17 C          -5.5981    3.1370   -7.6961 C.ar    1  LIG11      -0.0125
     18 C          -4.5880    4.1199   -1.4545 C.2     1  LIG11       0.2608
     19 C          -6.6900    2.5053   -5.6280 C.ar    1  LIG11      -0.0544
     20 C          -1.1062    6.0699   -5.6730 C.ar    1  LIG11      -0.0498
     21 C          -1.3867    4.0270   -4.4377 C.ar    1  LIG11      -0.0498
     22 C          -5.9771    1.9148   -8.2163 C.ar    1  LIG11       0.1665
     23 C          -7.0689    1.2746   -6.1848 C.ar    1  LIG11      -0.0159
     24 C          -6.6947    1.0084   -7.4804 C.ar    1  LIG11       0.1662
     25 C           0.2676    5.8356   -5.7831 C.ar    1  LIG11      -0.0195
     26 C          -0.0060    3.8032   -4.5365 C.ar    1  LIG11      -0.0195
     27 C          -5.1576    3.4556    0.8464 C.3     1  LIG11       0.0148
     28 C          -3.5005    5.3198    0.4815 C.3     1  LIG11       0.0148
     29 C           0.8270    4.7017   -5.2077 C.ar    1  LIG11       0.1201
     30 C          -6.1677    4.1881    1.7379 C.3     1  LIG11      -0.0374
     31 C          -2.0404    4.8499    0.5330 C.3     1  LIG11      -0.0374
     32 C          -6.3876    0.1939   -9.4563 C.3     1  LIG11       0.2332
     33 C          -7.2493    4.9226    0.9456 C.3     1  LIG11      -0.0545
     34 C          -1.7879    3.7308    1.5441 C.3     1  LIG11      -0.0545
     35 C          -8.2276    5.6260    1.8746 C.3     1  LIG11      -0.0652
     36 C          -0.3011    3.4784    1.7427 C.3     1  LIG11      -0.0652
     37 C           3.0062    5.1884   -6.0144 C.3     1  LIG11       0.0788
@<TRIPOS>BOND
     1     1    16   ar
     2     2    16   ar
     3     3    22    1
     4     3    32    1
     5     4    18    2
     6     5    24    1
     7     5    32    1
     8     6    29    1
     9     6    37    1
    10     7    11    1
    11     7    12    1
    12     7    15    1
    13     8    18   am
    14     8    27    1
    15     8    28    1
    16     9    10    1
    17     9    11    1
    18     9    16    1
    19    10    12    1
    20    10    13    1
    21    11    14    1
    22    13    17   ar
    23    13    19   ar
    24    14    20   ar
    25    14    21   ar
    26    15    18    1
    27    17    22   ar
    28    19    23   ar
    29    20    25   ar
    30    21    26   ar
    31    22    24   ar
    32    23    24   ar
    33    25    29   ar
    34    26    29   ar
    35    27    30    1
    36    28    31    1
    37    30    33    1
    38    31    34    1
    39    33    35    1
    40    34    36    1
@<TRIPOS>MOLECULE
../ET1/ET1_17-21_50CONFORMERS.pdb
 47 48 0 0 0
SMALL
GASTEIGER

@<TRIPOS>ATOM
      1  N         -4.4070   -0.1580   -1.6100 N.3    17  LEU17      -0.1231
      2  CA        -5.6240   -0.8400   -1.9910 C.3    17  LEU17       0.1693
      3  CB        -6.1680   -1.6030   -0.8030 C.3    17  LEU17       0.0284
      4  CG        -7.3010   -2.6660   -0.9890 C.3    17  LEU17       0.0019
      5  CD1       -6.9130   -3.7970   -1.9630 C.3    17  LEU17       0.0001
      6  CD2       -7.4830   -3.2850    0.3370 C.3    17  LEU17       0.0001
      7  C         -6.6870    0.1230   -2.5080 C.2    17  LEU17       0.2592
      8  O         -7.3680   -0.2170   -3.4720 O.2    17  LEU17      -0.2718
      9  N         -7.0550    1.1550   -1.7250 N.am   18  ASP18      -0.1960
     10  CA        -8.2140    1.9780   -1.9970 C.3    18  ASP18       0.1840
     11  CB        -9.3270    1.4400   -1.0160 C.3    18  ASP18       0.1450
     12  CG       -10.6300    2.2090   -1.2500 C.2    18  ASP18       0.3671
     13  OD1      -11.0860    2.2920   -2.4490 O.co2  18  ASP18      -0.2456
     14  OD2      -11.2320    2.7130   -0.3400 O.co2  18  ASP18      -0.2456
     15  C         -7.8840    3.4890   -1.7310 C.2    18  ASP18       0.2622
     16  O         -8.1040    4.2530   -2.6550 O.2    18  ASP18      -0.2715
     17  N         -7.4380    3.8400   -0.5470 N.am   19  ILE19      -0.1963
     18  CA        -7.1780    5.1420    0.0290 C.3    19  ILE19       0.1727
     19  CB        -7.2480    4.9270    1.5370 C.3    19  ILE19       0.0290
     20  CG2       -6.8910    6.2680    2.1860 C.3    19  ILE19       0.0023
     21  CG1       -8.6480    4.4460    2.0860 C.3    19  ILE19       0.0022
     22  CD1       -8.7390    4.2860    3.5900 C.3    19  ILE19       0.0001
     23  C         -5.7780    5.6630   -0.5380 C.2    19  ILE19       0.2616
     24  O         -5.6970    6.7570   -1.0600 O.2    19  ILE19      -0.2715
     25  N         -4.7690    4.8050   -0.3150 N.am   20  ILE20      -0.1963
     26  CA        -3.4620    5.0020   -0.8160 C.3    20  ILE20       0.1727
     27  CB        -2.4540    4.3920    0.1650 C.3    20  ILE20       0.0290
     28  CG2       -0.9250    4.3550   -0.2960 C.3    20  ILE20       0.0023
     29  CG1       -2.3670    5.0710    1.5310 C.3    20  ILE20       0.0022
     30  CD1       -3.4310    4.7860    2.5760 C.3    20  ILE20       0.0001
     31  C         -3.2210    4.4080   -2.1730 C.2    20  ILE20       0.2617
     32  O         -3.6730    3.2860   -2.4590 O.2    20  ILE20      -0.2715
     33  N         -2.7570    5.2530   -3.1090 N.am   21  TRP21      -0.1941
     34  CA        -2.8960    5.1440   -4.5550 C.3    21  TRP21       0.1982
     35  CB        -4.3330    5.4990   -4.9470 C.3    21  TRP21       0.0394
     36  CG        -4.7390    4.8290   -6.1730 C.3    21  TRP21       0.0475
     37  CD1       -4.3830    5.3150   -7.3710 C.3    21  TRP21       0.1166
     38  NE1       -4.8840    4.4920   -8.3410 N.pl3  21  TRP21      -0.2376
     39  CE2       -5.5200    3.3960   -7.8350 C.ar   21  TRP21       0.0614
     40  CZ2       -6.2050    2.3030   -8.4580 C.ar   21  TRP21       0.0158
     41  CH2       -6.8150    1.3270   -7.6190 C.ar   21  TRP21       0.0013
     42  CZ3       -6.9630    1.6000   -6.2310 C.ar   21  TRP21      -0.0002
     43  CE3       -6.3060    2.7150   -5.5920 C.ar   21  TRP21      -0.0030
     44  CD2       -5.5210    3.6010   -6.4020 C.ar   21  TRP21      -0.0059
     45  C         -1.8100    6.0150   -5.1580 C.2    21  TRP21       0.3842
     46  O         -1.3610    5.7820   -6.2550 O.co2  21  TRP21      -0.2437
     47  OXT       -1.2950    6.9770   -4.4370 O.co2  21  TRP21      -0.2437
@<TRIPOS>BOND
     1    40    41   ar
     2    40    39   ar
     3    41    42   ar
     4    39    38    1
     5    39    44   ar
     6    42    43   ar
     7    38    37    1
     8    43    44   ar
     9    44    36    1
    10    37    36    1
    11    36    35    1
    12    47    45   ar
    13     5     4    1
    14    35    34    1
    15    45    34    1
    16    45    46   ar
    17    34    33    1
    18     8     7    2
    19     4     6    1
    20     4     3    1
    21     2     3    1
    22     2     1    1
    23     2     7    1
    24     7     9   am
    25    33    31   am
    26    32    31    2
    27    31    26    1
    28     9    10    1
    29    10    11    1
    30    10    15    1
    31    26    27    1
    32    26    25    1
    33    11    12    1
    34    13    12   ar
    35    27    29    1
    36    27    28    1
    37    29    30    1
    38    16    15    2
    39    15    17   am
    40    12    14   ar
    41    25    23   am
    42    17    18    1
    43    23    24    2
    44    23    18    1
    45    18    19    1
    46    19    21    1
    47    19    20    1
    48    21    22    1
