@<TRIPOS>MOLECULE
../ET1/ET1_17-21_50CONFORMERS_NOBACKBONE.pdb
 26 23 0 0 0
SMALL
GASTEIGER

@<TRIPOS>ATOM
      1  CB        -6.2190   -2.1170   -0.8960 C.3    17  LEU17       0.0000
      2  CG        -7.3800   -3.0070   -1.1050 C.3    17  LEU17       0.0000
      3  CD1       -7.3860   -3.4900   -2.5640 C.3    17  LEU17       0.0000
      4  CD2       -7.3430   -4.0760   -0.0430 C.3    17  LEU17       0.0000
      5  CB        -9.4430    0.9030    1.2800 C.3    18  ASP18       0.1258
      6  CG       -10.6600    1.6150    1.8360 C.2    18  ASP18       0.3654
      7  OD1      -10.7720    1.7600    3.0590 O.co2  18  ASP18      -0.2456
      8  OD2      -11.5850    1.9260    1.0620 O.co2  18  ASP18      -0.2456
      9  CB        -5.5470    3.9840    3.3090 C.3    19  ILE19       0.0000
     10  CG2       -4.9560    5.2630    3.9590 C.3    19  ILE19       0.0000
     11  CG1       -6.0260    3.0070    4.3510 C.3    19  ILE19       0.0000
     12  CD1       -7.3500    3.4430    4.9740 C.3    19  ILE19       0.0000
     13  CB        -3.1740    5.6250   -0.5010 C.3    20  ILE20       0.0000
     14  CG2       -2.9430    6.4710    0.7960 C.3    20  ILE20       0.0000
     15  CG1       -2.1960    4.4100   -0.4230 C.3    20  ILE20       0.0000
     16  CD1       -0.6690    4.8000   -0.3990 C.3    20  ILE20       0.0000
     17  CB        -6.1600    5.9050   -4.9820 C.3    21  TRP21       0.0066
     18  CG        -7.2690    5.4400   -4.0860 C.3    21  TRP21       0.0452
     19  CD1       -7.7180    6.0320   -2.9590 C.3    21  TRP21       0.1165
     20  NE1       -8.7190    5.3870   -2.3980 N.pl3  21  TRP21      -0.2376
     21  CE2       -9.0240    4.2500   -3.0660 C.ar   21  TRP21       0.0614
     22  CZ2       -9.9610    3.2050   -2.9090 C.ar   21  TRP21       0.0158
     23  CH2      -10.0770    2.1920   -3.7900 C.ar   21  TRP21       0.0013
     24  CZ3       -9.2010    2.2250   -4.9010 C.ar   21  TRP21      -0.0002
     25  CE3       -8.2180    3.2070   -5.0950 C.ar   21  TRP21      -0.0030
     26  CD2       -8.1340    4.2600   -4.1610 C.ar   21  TRP21      -0.0059
@<TRIPOS>BOND
     1    22    23   ar
     2    22    21   ar
     3    23    24   ar
     4    21    20    1
     5    21    26   ar
     6    24    25   ar
     7    20    19    1
     8    25    26   ar
     9    26    18    1
    10    19    18    1
    11    18    17    1
    12     3     2    1
    13     2     4    1
    14     2     1    1
    15     5     6    1
    16     7     6   ar
    17    13    15    1
    18    13    14    1
    19    15    16    1
    20     6     8   ar
    21     9    11    1
    22     9    10    1
    23    11    12    1
@<TRIPOS>MOLECULE
159594
 37 40 0 0 0
SMALL
GASTEIGER

@<TRIPOS>ATOM
      1 O          -5.4757    7.2613   -4.4340 O.co2   1  LIG11      -0.5493
      2 O          -7.2761    8.5560   -4.9811 O.co2   1  LIG11      -0.5493
      3 O          -8.1689    0.5708   -5.3948 O.3     1  LIG11      -0.4526
      4 O          -6.9500    3.9985    0.4406 O.2     1  LIG11      -0.2697
      5 O         -10.4415    0.6710   -4.5935 O.3     1  LIG11      -0.4526
      6 O         -11.3500   10.3293    0.0687 O.3     1  LIG11      -0.4951
      7 N          -6.9593    5.8166   -1.6021 N.3     1  LIG11       0.2481
      8 N          -4.8657    4.5845    1.2465 N.am    1  LIG11      -0.2971
      9 C          -7.6256    6.5703   -3.7826 C.3     1  LIG11       0.0574
     10 C          -7.0684    5.1473   -3.9008 C.3     1  LIG11       0.0378
     11 C          -7.3387    7.0734   -2.3666 C.3     1  LIG11       0.0143
     12 C          -6.2400    4.9696   -2.6298 C.3     1  LIG11      -0.0230
     13 C          -8.0627    4.0031   -4.0443 C.ar    1  LIG11      -0.0347
     14 C          -8.4500    7.8978   -1.7396 C.ar    1  LIG11       0.0011
     15 C          -6.1242    6.0758   -0.3664 C.3     1  LIG11       0.0468
     16 C          -6.7072    7.5439   -4.5091 C.2     1  LIG11       0.0513
     17 C          -7.5997    2.8237   -4.6679 C.ar    1  LIG11      -0.0125
     18 C          -6.0079    4.7982    0.4791 C.2     1  LIG11       0.2608
     19 C          -9.3925    4.0475   -3.5746 C.ar    1  LIG11      -0.0544
     20 C          -8.4073    9.2928   -1.9277 C.ar    1  LIG11      -0.0498
     21 C          -9.5059    7.3707   -0.9875 C.ar    1  LIG11      -0.0498
     22 C          -8.4643    1.7607   -4.8087 C.ar    1  LIG11       0.1665
     23 C         -10.2471    2.9466   -3.7273 C.ar    1  LIG11      -0.0159
     24 C          -9.7547    1.8192   -4.3508 C.ar    1  LIG11       0.1662
     25 C          -9.3538   10.1415   -1.3477 C.ar    1  LIG11      -0.0195
     26 C         -10.4542    8.2256   -0.4072 C.ar    1  LIG11      -0.0195
     27 C          -4.7576    3.3182    1.9848 C.3     1  LIG11       0.0148
     28 C          -3.5985    5.2850    0.9925 C.3     1  LIG11       0.0148
     29 C         -10.3759    9.6116   -0.5690 C.ar    1  LIG11       0.1201
     30 C          -5.8110    3.1015    3.0769 C.3     1  LIG11      -0.0374
     31 C          -2.8285    4.6263   -0.1565 C.3     1  LIG11      -0.0374
     32 C          -9.4443   -0.0964   -5.3025 C.3     1  LIG11       0.2332
     33 C          -5.8540    4.2268    4.1101 C.3     1  LIG11      -0.0545
     34 C          -1.5884    5.4230   -0.5525 C.3     1  LIG11      -0.0545
     35 C          -6.8717    3.9262    5.2005 C.3     1  LIG11      -0.0652
     36 C          -0.7867    4.6934   -1.6203 C.3     1  LIG11      -0.0652
     37 C         -11.2304   11.7477    0.0210 C.3     1  LIG11       0.0788
@<TRIPOS>BOND
     1     1    16   ar
     2     2    16   ar
     3     3    22    1
     4     3    32    1
     5     4    18    2
     6     5    24    1
     7     5    32    1
     8     6    29    1
     9     6    37    1
    10     7    11    1
    11     7    12    1
    12     7    15    1
    13     8    18   am
    14     8    27    1
    15     8    28    1
    16     9    10    1
    17     9    11    1
    18     9    16    1
    19    10    12    1
    20    10    13    1
    21    11    14    1
    22    13    17   ar
    23    13    19   ar
    24    14    20   ar
    25    14    21   ar
    26    15    18    1
    27    17    22   ar
    28    19    23   ar
    29    20    25   ar
    30    21    26   ar
    31    22    24   ar
    32    23    24   ar
    33    25    29   ar
    34    26    29   ar
    35    27    30    1
    36    28    31    1
    37    30    33    1
    38    31    34    1
    39    33    35    1
    40    34    36    1
@<TRIPOS>MOLECULE
../ET1/ET1_17-21_50CONFORMERS.pdb
 47 48 0 0 0
SMALL
GASTEIGER

@<TRIPOS>ATOM
      1  N         -5.0400   -0.0260   -1.4120 N.3    17  LEU17      -0.1231
      2  CA        -6.2700   -0.7830   -1.6990 C.3    17  LEU17       0.1693
      3  CB        -6.2190   -2.1170   -0.8960 C.3    17  LEU17       0.0284
      4  CG        -7.3800   -3.0070   -1.1050 C.3    17  LEU17       0.0019
      5  CD1       -7.3860   -3.4900   -2.5640 C.3    17  LEU17       0.0001
      6  CD2       -7.3430   -4.0760   -0.0430 C.3    17  LEU17       0.0001
      7  C         -7.5030    0.0560   -1.4220 C.2    17  LEU17       0.2592
      8  O         -8.5340   -0.0800   -2.0900 O.2    17  LEU17      -0.2718
      9  N         -7.4830    0.8690   -0.3710 N.am   18  ASP18      -0.1960
     10  CA        -8.6090    1.6770    0.1740 C.3    18  ASP18       0.1840
     11  CB        -9.4430    0.9030    1.2800 C.3    18  ASP18       0.1450
     12  CG       -10.6600    1.6150    1.8360 C.2    18  ASP18       0.3671
     13  OD1      -10.7720    1.7600    3.0590 O.co2  18  ASP18      -0.2456
     14  OD2      -11.5850    1.9260    1.0620 O.co2  18  ASP18      -0.2456
     15  C         -8.1600    3.0760    0.6810 C.2    18  ASP18       0.2622
     16  O         -8.6560    4.0670    0.2340 O.2    18  ASP18      -0.2715
     17  N         -7.3290    3.0850    1.7300 N.am   19  ILE19      -0.1963
     18  CA        -6.6050    4.3200    2.2320 C.3    19  ILE19       0.1727
     19  CB        -5.5470    3.9840    3.3090 C.3    19  ILE19       0.0290
     20  CG2       -4.9560    5.2630    3.9590 C.3    19  ILE19       0.0023
     21  CG1       -6.0260    3.0070    4.3510 C.3    19  ILE19       0.0022
     22  CD1       -7.3500    3.4430    4.9740 C.3    19  ILE19       0.0001
     23  C         -6.0170    5.2430    1.1510 C.2    19  ILE19       0.2616
     24  O         -6.2820    6.4660    1.2160 O.2    19  ILE19      -0.2715
     25  N         -5.2880    4.6200    0.2640 N.am   20  ILE20      -0.1963
     26  CA        -4.6340    5.3270   -0.8730 C.3    20  ILE20       0.1727
     27  CB        -3.1740    5.6250   -0.5010 C.3    20  ILE20       0.0290
     28  CG2       -2.9430    6.4710    0.7960 C.3    20  ILE20       0.0023
     29  CG1       -2.1960    4.4100   -0.4230 C.3    20  ILE20       0.0022
     30  CD1       -0.6690    4.8000   -0.3990 C.3    20  ILE20       0.0001
     31  C         -4.7190    4.6680   -2.2650 C.2    20  ILE20       0.2617
     32  O         -5.1500    3.4700   -2.4120 O.2    20  ILE20      -0.2715
     33  N         -4.3810    5.4790   -3.2470 N.am   21  TRP21      -0.1941
     34  CA        -4.7800    5.3270   -4.6380 C.3    21  TRP21       0.1982
     35  CB        -6.1600    5.9050   -4.9820 C.3    21  TRP21       0.0394
     36  CG        -7.2690    5.4400   -4.0860 C.3    21  TRP21       0.0475
     37  CD1       -7.7180    6.0320   -2.9590 C.3    21  TRP21       0.1166
     38  NE1       -8.7190    5.3870   -2.3980 N.pl3  21  TRP21      -0.2376
     39  CE2       -9.0240    4.2500   -3.0660 C.ar   21  TRP21       0.0614
     40  CZ2       -9.9610    3.2050   -2.9090 C.ar   21  TRP21       0.0158
     41  CH2      -10.0770    2.1920   -3.7900 C.ar   21  TRP21       0.0013
     42  CZ3       -9.2010    2.2250   -4.9010 C.ar   21  TRP21      -0.0002
     43  CE3       -8.2180    3.2070   -5.0950 C.ar   21  TRP21      -0.0030
     44  CD2       -8.1340    4.2600   -4.1610 C.ar   21  TRP21      -0.0059
     45  C         -3.7690    5.9550   -5.6300 C.2    21  TRP21       0.3842
     46  O         -3.4350    7.1820   -5.4290 O.co2  21  TRP21      -0.2437
     47  OXT       -3.2170    5.2800   -6.5300 O.co2  21  TRP21      -0.2437
@<TRIPOS>BOND
     1    40    41   ar
     2    40    39   ar
     3    41    42   ar
     4    39    38    1
     5    39    44   ar
     6    42    43   ar
     7    38    37    1
     8    43    44   ar
     9    44    36    1
    10    37    36    1
    11    36    35    1
    12    47    45   ar
    13     5     4    1
    14    35    34    1
    15    45    34    1
    16    45    46   ar
    17    34    33    1
    18     8     7    2
    19     4     6    1
    20     4     3    1
    21     2     3    1
    22     2     1    1
    23     2     7    1
    24     7     9   am
    25    33    31   am
    26    32    31    2
    27    31    26    1
    28     9    10    1
    29    10    11    1
    30    10    15    1
    31    26    27    1
    32    26    25    1
    33    11    12    1
    34    13    12   ar
    35    27    29    1
    36    27    28    1
    37    29    30    1
    38    16    15    2
    39    15    17   am
    40    12    14   ar
    41    25    23   am
    42    17    18    1
    43    23    24    2
    44    23    18    1
    45    18    19    1
    46    19    21    1
    47    19    20    1
    48    21    22    1
