@<TRIPOS>MOLECULE
../ET1/ET1_17-21_50CONFORMERS_NOBACKBONE.pdb
 26 23 0 0 0
SMALL
GASTEIGER

@<TRIPOS>ATOM
      1  CB        -5.6560   -2.0130   -0.9140 C.3    17  LEU17       0.0000
      2  CG        -7.0430   -2.5080   -0.6020 C.3    17  LEU17       0.0000
      3  CD1       -7.7900   -3.0040   -1.8120 C.3    17  LEU17       0.0000
      4  CD2       -7.1720   -3.5500    0.4900 C.3    17  LEU17       0.0000
      5  CB        -8.8680    1.4860    0.1670 C.3    18  ASP18       0.1258
      6  CG       -10.2320    2.1200   -0.0550 C.2    18  ASP18       0.3654
      7  OD1      -10.8920    1.6370   -1.0120 O.co2  18  ASP18      -0.2456
      8  OD2      -10.6300    3.0590    0.6490 O.co2  18  ASP18      -0.2456
      9  CB        -5.9660    4.7960    2.7400 C.3    19  ILE19       0.0000
     10  CG2       -4.6800    4.0440    2.8270 C.3    19  ILE19       0.0000
     11  CG1       -5.7570    6.1350    3.5640 C.3    19  ILE19       0.0000
     12  CD1       -6.9460    7.0030    3.7030 C.3    19  ILE19       0.0000
     13  CB        -2.2100    5.4370   -1.2690 C.3    20  ILE20       0.0000
     14  CG2       -1.8610    6.5760   -0.2560 C.3    20  ILE20       0.0000
     15  CG1       -1.5260    4.1100   -0.9140 C.3    20  ILE20       0.0000
     16  CD1       -0.0200    4.2560   -0.6990 C.3    20  ILE20       0.0000
     17  CB        -6.7280    3.3830   -4.1640 C.3    21  TRP21       0.0066
     18  CG        -7.1910    2.3800   -5.1940 C.3    21  TRP21       0.0452
     19  CD1       -8.2010    2.5130   -6.1000 C.3    21  TRP21       0.1165
     20  NE1       -8.2490    1.3760   -6.9010 N.pl3  21  TRP21      -0.2376
     21  CE2       -7.1040    0.6070   -6.6890 C.ar   21  TRP21       0.0614
     22  CZ2       -6.5890   -0.5400   -7.3230 C.ar   21  TRP21       0.0158
     23  CH2       -5.3990   -1.1090   -6.8770 C.ar   21  TRP21       0.0013
     24  CZ3       -4.8390   -0.5650   -5.6710 C.ar   21  TRP21      -0.0002
     25  CE3       -5.4260    0.5390   -4.9710 C.ar   21  TRP21      -0.0030
     26  CD2       -6.4960    1.1980   -5.5550 C.ar   21  TRP21      -0.0059
@<TRIPOS>BOND
     1    22    23   ar
     2    22    21   ar
     3    23    24   ar
     4    21    20    1
     5    21    26   ar
     6    24    25   ar
     7    20    19    1
     8    25    26   ar
     9    26    18    1
    10    19    18    1
    11    18    17    1
    12     3     2    1
    13     2     4    1
    14     2     1    1
    15     5     6    1
    16     7     6   ar
    17    13    15    1
    18    13    14    1
    19    15    16    1
    20     6     8   ar
    21     9    11    1
    22     9    10    1
    23    11    12    1
@<TRIPOS>MOLECULE
01012527H
 38 40 0 0 0
SMALL
GASTEIGER

@<TRIPOS>ATOM
      1 C          -7.7707    1.1336   -3.2815 C.3     1  LIG11       0.0531
      2 C          -6.8798    1.0220   -2.0517 C.3     1  LIG11      -0.0111
      3 C          -6.9708    1.7910   -4.3972 C.3     1  LIG11       0.0375
      4 C          -8.8553    2.0400   -2.7069 C.2     1  LIG11       0.0509
      5 N          -5.7372    2.0385   -2.3140 N.3     1  LIG11       0.2448
      6 C          -6.1996   -0.3396   -1.7811 C.3     1  LIG11      -0.0039
      7 C          -6.3978    0.7545   -5.3580 C.ar    1  LIG11      -0.0313
      8 C          -5.9733    2.6868   -3.6734 C.3     1  LIG11      -0.0234
      9 O          -9.7661    1.4290   -2.0959 O.co2   1  LIG11      -0.5493
     10 O          -8.6310    3.2766   -2.8028 O.co2   1  LIG11      -0.5493
     11 C          -5.6498    3.0716   -1.1853 C.3     1  LIG11       0.0465
     12 C          -7.0327   -1.5101   -1.1564 C.3     1  LIG11      -0.0298
     13 C          -5.1519    0.1362   -5.1865 C.ar    1  LIG11      -0.0122
     14 C          -7.2060    0.3668   -6.4628 C.ar    1  LIG11      -0.0124
     15 C          -4.4623    4.0350   -1.3349 C.2     1  LIG11       0.2608
     16 C          -5.9875   -2.5844   -0.7018 C.3     1  LIG11      -0.0479
     17 C          -7.9949   -2.1174   -2.1893 C.3     1  LIG11      -0.0596
     18 C          -7.8445   -1.0255    0.0569 C.3     1  LIG11      -0.0596
     19 C          -4.7877   -0.8599   -6.0701 C.ar    1  LIG11       0.1702
     20 C          -6.7919   -0.6113   -7.3758 C.ar    1  LIG11       0.1656
     21 N          -4.1067    4.8256   -0.2468 N.am    1  LIG11      -0.2971
     22 O          -3.8390    4.0725   -2.4010 O.2     1  LIG11      -0.2697
     23 C          -6.5388   -3.8815   -0.0973 C.3     1  LIG11      -0.0554
     24 C          -5.5808   -1.2287   -7.1307 C.ar    1  LIG11       0.2075
     25 O          -3.6386   -1.5867   -5.9974 O.3     1  LIG11      -0.4525
     26 O          -7.4937   -1.0298   -8.4685 O.3     1  LIG11      -0.4913
     27 C          -4.7468    4.7705    1.0748 C.3     1  LIG11       0.0148
     28 C          -3.0384    5.8156   -0.4231 C.3     1  LIG11       0.0148
     29 C          -5.4112   -4.7754    0.4029 C.3     1  LIG11      -0.0653
     30 O          -5.0185   -2.2309   -7.8634 O.3     1  LIG11      -0.4489
     31 C          -3.8203   -2.4880   -7.1097 C.3     1  LIG11       0.2334
     32 C          -8.5152   -0.1565   -8.9343 C.3     1  LIG11       0.0790
     33 C          -5.9963    5.6497    1.1531 C.3     1  LIG11      -0.0374
     34 C          -1.6500    5.2894   -0.0375 C.3     1  LIG11      -0.0374
     35 C          -6.7456    5.5009    2.4791 C.3     1  LIG11      -0.0545
     36 C          -1.1063    4.2437   -1.0147 C.3     1  LIG11      -0.0545
     37 C          -5.9936    6.0842    3.6656 C.3     1  LIG11      -0.0652
     38 C           0.3312    3.8636   -0.6972 C.3     1  LIG11      -0.0652
@<TRIPOS>BOND
     1     1     2    1
     2     1     3    1
     3     1     4    1
     4     2     5    1
     5     2     6    1
     6     3     8    1
     7     3     7    1
     8     4    10   ar
     9     4     9   ar
    10     5     8    1
    11     5    11    1
    12     6    12    1
    13     7    14   ar
    14     7    13   ar
    15    11    15    1
    16    12    18    1
    17    12    17    1
    18    12    16    1
    19    13    19   ar
    20    14    20   ar
    21    15    22    2
    22    15    21   am
    23    16    23    1
    24    19    25    1
    25    19    24   ar
    26    20    24   ar
    27    20    26    1
    28    21    28    1
    29    21    27    1
    30    23    29    1
    31    24    30    1
    32    25    31    1
    33    26    32    1
    34    27    33    1
    35    28    34    1
    36    30    31    1
    37    33    35    1
    38    34    36    1
    39    35    37    1
    40    36    38    1
@<TRIPOS>MOLECULE
../ET1/ET1_17-21_50CONFORMERS.pdb
 47 48 0 0 0
SMALL
GASTEIGER

@<TRIPOS>ATOM
      1  N         -4.2010   -0.1720   -1.7670 N.3    17  LEU17      -0.1231
      2  CA        -5.4580   -0.8500   -1.9110 C.3    17  LEU17       0.1693
      3  CB        -5.6560   -2.0130   -0.9140 C.3    17  LEU17       0.0284
      4  CG        -7.0430   -2.5080   -0.6020 C.3    17  LEU17       0.0019
      5  CD1       -7.7900   -3.0040   -1.8120 C.3    17  LEU17       0.0001
      6  CD2       -7.1720   -3.5500    0.4900 C.3    17  LEU17       0.0001
      7  C         -6.6890    0.1240   -1.9280 C.2    17  LEU17       0.2592
      8  O         -7.5330    0.1470   -2.8350 O.2    17  LEU17      -0.2718
      9  N         -6.7310    1.0230   -0.9570 N.am   18  ASP18      -0.1960
     10  CA        -7.8670    2.0040   -0.9130 C.3    18  ASP18       0.1840
     11  CB        -8.8680    1.4860    0.1670 C.3    18  ASP18       0.1450
     12  CG       -10.2320    2.1200   -0.0550 C.2    18  ASP18       0.3671
     13  OD1      -10.8920    1.6370   -1.0120 O.co2  18  ASP18      -0.2456
     14  OD2      -10.6300    3.0590    0.6490 O.co2  18  ASP18      -0.2456
     15  C         -7.4570    3.4490   -0.4690 C.2    18  ASP18       0.2622
     16  O         -7.5790    4.4230   -1.2060 O.2    18  ASP18      -0.2715
     17  N         -6.7830    3.6660    0.6670 N.am   19  ILE19      -0.1963
     18  CA        -6.4730    4.9620    1.2510 C.3    19  ILE19       0.1727
     19  CB        -5.9660    4.7960    2.7400 C.3    19  ILE19       0.0290
     20  CG2       -4.6800    4.0440    2.8270 C.3    19  ILE19       0.0023
     21  CG1       -5.7570    6.1350    3.5640 C.3    19  ILE19       0.0022
     22  CD1       -6.9460    7.0030    3.7030 C.3    19  ILE19       0.0001
     23  C         -5.5000    5.7810    0.3390 C.2    19  ILE19       0.2616
     24  O         -5.7690    6.9650   -0.0340 O.2    19  ILE19      -0.2715
     25  N         -4.4450    5.0980   -0.2040 N.am   20  ILE20      -0.1963
     26  CA        -3.7630    5.4400   -1.4580 C.3    20  ILE20       0.1727
     27  CB        -2.2100    5.4370   -1.2690 C.3    20  ILE20       0.0290
     28  CG2       -1.8610    6.5760   -0.2560 C.3    20  ILE20       0.0023
     29  CG1       -1.5260    4.1100   -0.9140 C.3    20  ILE20       0.0022
     30  CD1       -0.0200    4.2560   -0.6990 C.3    20  ILE20       0.0001
     31  C         -4.2760    4.3340   -2.4360 C.2    20  ILE20       0.2617
     32  O         -4.0530    3.1690   -2.2790 O.2    20  ILE20      -0.2715
     33  N         -4.9410    4.8110   -3.4460 N.am   21  TRP21      -0.1941
     34  CA        -5.4130    4.0870   -4.6560 C.3    21  TRP21       0.1982
     35  CB        -6.7280    3.3830   -4.1640 C.3    21  TRP21       0.0394
     36  CG        -7.1910    2.3800   -5.1940 C.3    21  TRP21       0.0475
     37  CD1       -8.2010    2.5130   -6.1000 C.3    21  TRP21       0.1166
     38  NE1       -8.2490    1.3760   -6.9010 N.pl3  21  TRP21      -0.2376
     39  CE2       -7.1040    0.6070   -6.6890 C.ar   21  TRP21       0.0614
     40  CZ2       -6.5890   -0.5400   -7.3230 C.ar   21  TRP21       0.0158
     41  CH2       -5.3990   -1.1090   -6.8770 C.ar   21  TRP21       0.0013
     42  CZ3       -4.8390   -0.5650   -5.6710 C.ar   21  TRP21      -0.0002
     43  CE3       -5.4260    0.5390   -4.9710 C.ar   21  TRP21      -0.0030
     44  CD2       -6.4960    1.1980   -5.5550 C.ar   21  TRP21      -0.0059
     45  C         -5.6750    5.0260   -5.8140 C.2    21  TRP21       0.3842
     46  O         -6.3400    6.0940   -5.6060 O.co2  21  TRP21      -0.2437
     47  OXT       -5.1860    4.6870   -6.9310 O.co2  21  TRP21      -0.2437
@<TRIPOS>BOND
     1    40    41   ar
     2    40    39   ar
     3    41    42   ar
     4    39    38    1
     5    39    44   ar
     6    42    43   ar
     7    38    37    1
     8    43    44   ar
     9    44    36    1
    10    37    36    1
    11    36    35    1
    12    47    45   ar
    13     5     4    1
    14    35    34    1
    15    45    34    1
    16    45    46   ar
    17    34    33    1
    18     8     7    2
    19     4     6    1
    20     4     3    1
    21     2     3    1
    22     2     1    1
    23     2     7    1
    24     7     9   am
    25    33    31   am
    26    32    31    2
    27    31    26    1
    28     9    10    1
    29    10    11    1
    30    10    15    1
    31    26    27    1
    32    26    25    1
    33    11    12    1
    34    13    12   ar
    35    27    29    1
    36    27    28    1
    37    29    30    1
    38    16    15    2
    39    15    17   am
    40    12    14   ar
    41    25    23   am
    42    17    18    1
    43    23    24    2
    44    23    18    1
    45    18    19    1
    46    19    21    1
    47    19    20    1
    48    21    22    1
