@<TRIPOS>MOLECULE
../ET1/ET1_17-21_50CONFORMERS_NOBACKBONE.pdb
 26 23 0 0 0
SMALL
GASTEIGER

@<TRIPOS>ATOM
      1  CB        -5.9150   -1.7330   -0.9920 C.3    17  LEU17       0.0000
      2  CG        -6.7930   -2.9700   -1.3540 C.3    17  LEU17       0.0000
      3  CD1       -6.2140   -3.8230   -2.4370 C.3    17  LEU17       0.0000
      4  CD2       -7.0550   -3.8870   -0.1850 C.3    17  LEU17       0.0000
      5  CB        -9.7450    0.9120   -1.6490 C.3    18  ASP18       0.1258
      6  CG       -11.0620    1.5030   -2.1540 C.2    18  ASP18       0.3654
      7  OD1      -11.8300    2.0300   -1.2950 O.co2  18  ASP18      -0.2456
      8  OD2      -11.3540    1.6480   -3.3860 O.co2  18  ASP18      -0.2456
      9  CB        -8.1330    4.0200    2.2160 C.3    19  ILE19       0.0000
     10  CG2       -7.8130    5.2060    3.2120 C.3    19  ILE19       0.0000
     11  CG1       -9.3630    3.2270    2.7510 C.3    19  ILE19       0.0000
     12  CD1      -10.7540    3.8490    2.3780 C.3    19  ILE19       0.0000
     13  CB        -3.2600    4.8240    0.3520 C.3    20  ILE20       0.0000
     14  CG2       -1.9660    5.1870   -0.3850 C.3    20  ILE20       0.0000
     15  CG1       -3.0540    5.1300    1.8350 C.3    20  ILE20       0.0000
     16  CD1       -3.6990    4.1430    2.8550 C.3    20  ILE20       0.0000
     17  CB        -6.5710    4.8500   -4.2780 C.3    21  TRP21       0.0066
     18  CG        -6.9860    4.2470   -5.5640 C.3    21  TRP21       0.0452
     19  CD1       -7.6890    4.8410   -6.5160 C.3    21  TRP21       0.1165
     20  NE1       -8.1330    3.9500   -7.4630 N.pl3  21  TRP21      -0.2376
     21  CE2       -7.5380    2.7170   -7.2510 C.ar   21  TRP21       0.0614
     22  CZ2       -7.6290    1.4500   -7.9070 C.ar   21  TRP21       0.0158
     23  CH2       -6.8640    0.4030   -7.4010 C.ar   21  TRP21       0.0013
     24  CZ3       -6.2010    0.4890   -6.1600 C.ar   21  TRP21      -0.0002
     25  CE3       -6.2390    1.7600   -5.4750 C.ar   21  TRP21      -0.0030
     26  CD2       -6.8380    2.9140   -6.0230 C.ar   21  TRP21      -0.0059
@<TRIPOS>BOND
     1    22    23   ar
     2    22    21   ar
     3    23    24   ar
     4    21    20    1
     5    21    26   ar
     6    24    25   ar
     7    20    19    1
     8    25    26   ar
     9    26    18    1
    10    19    18    1
    11    18    17    1
    12     3     2    1
    13     2     4    1
    14     2     1    1
    15     5     6    1
    16     7     6   ar
    17    13    15    1
    18    13    14    1
    19    15    16    1
    20     6     8   ar
    21     9    11    1
    22     9    10    1
    23    11    12    1
@<TRIPOS>MOLECULE
*****
 39 42 0 0 0
SMALL
GASTEIGER

@<TRIPOS>ATOM
      1 C         -10.4683   -6.0869    2.2110 C.ar    1  LIG11       0.0483
      2 C         -10.3767   -5.1217    3.1860 C.ar    1  LIG11       0.0543
      3 C          -9.5833   -4.0417    2.8775 C.ar    1  LIG11       0.0483
      4 N          -8.9234   -3.9104    1.7061 N.ar    1  LIG11      -0.2022
      5 N          -9.8238   -6.0133    1.0271 N.ar    1  LIG11      -0.2022
      6 C          -6.6055   -7.0472   -7.1560 C.ar    1  LIG11      -0.0504
      7 C          -7.5980   -6.2533   -7.7305 C.ar    1  LIG11      -0.0583
      8 C          -7.9963   -5.0516   -7.1238 C.ar    1  LIG11      -0.0535
      9 C          -7.4071   -4.5793   -5.9360 C.ar    1  LIG11      -0.0094
     10 C          -6.3892   -5.3911   -5.3945 C.ar    1  LIG11      -0.0535
     11 C          -6.0133   -6.6124   -5.9728 C.ar    1  LIG11      -0.0583
     12 C          -7.9404    2.4175   -6.8460 C.ar    1  LIG11      -0.0561
     13 C          -8.0425    1.1820   -7.4937 C.ar    1  LIG11      -0.0348
     14 C          -7.0038    0.2574   -7.3770 C.ar    1  LIG11       0.1086
     15 C          -5.8507    0.5829   -6.6670 C.ar    1  LIG11      -0.0348
     16 C          -5.7505    1.8296   -6.0394 C.ar    1  LIG11      -0.0561
     17 C          -6.7289    4.1272   -5.3680 C.3     1  LIG11       0.0132
     18 C          -6.7940    2.7707   -6.1025 C.ar    1  LIG11      -0.0394
     19 C          -7.1194    5.2781   -6.3247 C.3     1  LIG11      -0.0537
     20 C          -5.3429    4.4664   -4.7396 C.3     1  LIG11       0.0533
     21 C          -7.7436    4.0876   -4.2014 C.3     1  LIG11      -0.0537
     22 O          -4.2961    4.5807   -5.6987 O.3     1  LIG11      -0.3942
     23 S          -7.1661   -1.3492   -8.1243 S.O2    1  LIG11       0.0735
     24 O          -7.5862   -1.1268   -9.4928 O.2     1  LIG11      -0.1499
     25 O          -5.9700   -2.1091   -7.8194 O.2     1  LIG11      -0.1499
     26 N          -8.4809   -2.0576   -7.3329 N.pl3   1  LIG11      -0.1988
     27 C          -7.8462   -3.3146   -5.2714 C.ar    1  LIG11       0.0847
     28 C          -7.8440   -3.1188   -3.8863 C.ar    1  LIG11       0.2276
     29 N          -8.2454   -1.9935   -3.2497 N.ar    1  LIG11      -0.2008
     30 C          -8.7172   -1.0190   -4.0191 C.ar    1  LIG11       0.1219
     31 N          -8.8223   -1.0723   -5.3427 N.ar    1  LIG11      -0.2186
     32 C          -8.3600   -2.1946   -5.9254 C.ar    1  LIG11       0.1524
     33 C          -6.2327   -8.3659   -7.7631 C.3     1  LIG11      -0.0397
     34 O          -7.5375   -4.1805   -3.0598 O.3     1  LIG11      -0.4724
     35 C          -6.8534   -3.8002   -1.8586 C.3     1  LIG11       0.1252
     36 C          -7.7972   -3.6386   -0.6658 C.3     1  LIG11       0.1267
     37 O          -8.3692   -4.9115   -0.3545 O.3     1  LIG11      -0.4590
     38 C          -9.0765   -4.9172    0.8261 C.ar    1  LIG11       0.3180
     39 BR        -11.2651   -5.2727    4.8320 Br      1  LIG11      -0.0472
@<TRIPOS>BOND
     1     1     2   ar
     2     2     3   ar
     3     2    39    1
     4     3     4   ar
     5     4    38   ar
     6     5     1   ar
     7     6     7   ar
     8     6    33    1
     9     7     8   ar
    10     8     9   ar
    11     9    10   ar
    12    10    11   ar
    13    11     6   ar
    14    12    13   ar
    15    13    14   ar
    16    14    15   ar
    17    15    16   ar
    18    16    18   ar
    19    17    18    1
    20    17    21    1
    21    17    20    1
    22    17    19    1
    23    18    12   ar
    24    20    22    1
    25    23    26    1
    26    23    25    2
    27    23    24    2
    28    23    14    1
    29    26    32    1
    30    27    28   ar
    31    27     9    1
    32    28    29   ar
    33    29    30   ar
    34    30    31   ar
    35    31    32   ar
    36    32    27   ar
    37    34    35    1
    38    34    28    1
    39    35    36    1
    40    36    37    1
    41    37    38    1
    42    38     5   ar
@<TRIPOS>MOLECULE
../ET1/ET1_17-21_50CONFORMERS.pdb
 47 48 0 0 0
SMALL
GASTEIGER

@<TRIPOS>ATOM
      1  N         -4.5300    0.1590   -1.6710 N.3    17  LEU17      -0.1231
      2  CA        -5.5930   -0.7210   -2.1070 C.3    17  LEU17       0.1693
      3  CB        -5.9150   -1.7330   -0.9920 C.3    17  LEU17       0.0284
      4  CG        -6.7930   -2.9700   -1.3540 C.3    17  LEU17       0.0019
      5  CD1       -6.2140   -3.8230   -2.4370 C.3    17  LEU17       0.0001
      6  CD2       -7.0550   -3.8870   -0.1850 C.3    17  LEU17       0.0001
      7  C         -6.8580   -0.0060   -2.6050 C.2    17  LEU17       0.2592
      8  O         -7.4790   -0.4710   -3.5640 O.2    17  LEU17      -0.2718
      9  N         -7.3280    1.0080   -1.8550 N.am   18  ASP18      -0.1960
     10  CA        -8.5650    1.7140   -2.1340 C.3    18  ASP18       0.1840
     11  CB        -9.7450    0.9120   -1.6490 C.3    18  ASP18       0.1450
     12  CG       -11.0620    1.5030   -2.1540 C.2    18  ASP18       0.3671
     13  OD1      -11.8300    2.0300   -1.2950 O.co2  18  ASP18      -0.2456
     14  OD2      -11.3540    1.6480   -3.3860 O.co2  18  ASP18      -0.2456
     15  C         -8.5690    3.1210   -1.4650 C.2    18  ASP18       0.2622
     16  O         -8.8170    4.0880   -2.1790 O.2    18  ASP18      -0.2715
     17  N         -8.3590    3.1990   -0.1590 N.am   19  ILE19      -0.1963
     18  CA        -8.2060    4.4460    0.7240 C.3    19  ILE19       0.1727
     19  CB        -8.1330    4.0200    2.2160 C.3    19  ILE19       0.0290
     20  CG2       -7.8130    5.2060    3.2120 C.3    19  ILE19       0.0023
     21  CG1       -9.3630    3.2270    2.7510 C.3    19  ILE19       0.0022
     22  CD1      -10.7540    3.8490    2.3780 C.3    19  ILE19       0.0001
     23  C         -6.9690    5.2450    0.2790 C.2    19  ILE19       0.2616
     24  O         -7.0590    6.3590   -0.0630 O.2    19  ILE19      -0.2715
     25  N         -5.7500    4.6960    0.2020 N.am   20  ILE20      -0.1963
     26  CA        -4.5220    5.3510   -0.3470 C.3    20  ILE20       0.1727
     27  CB        -3.2600    4.8240    0.3520 C.3    20  ILE20       0.0290
     28  CG2       -1.9660    5.1870   -0.3850 C.3    20  ILE20       0.0023
     29  CG1       -3.0540    5.1300    1.8350 C.3    20  ILE20       0.0022
     30  CD1       -3.6990    4.1430    2.8550 C.3    20  ILE20       0.0001
     31  C         -4.5660    4.8880   -1.8040 C.2    20  ILE20       0.2617
     32  O         -4.5390    3.6220   -2.1030 O.2    20  ILE20      -0.2715
     33  N         -4.8940    5.7710   -2.6950 N.am   21  TRP21      -0.1941
     34  CA        -5.1590    5.4550   -4.0940 C.3    21  TRP21       0.1982
     35  CB        -6.5710    4.8500   -4.2780 C.3    21  TRP21       0.0394
     36  CG        -6.9860    4.2470   -5.5640 C.3    21  TRP21       0.0475
     37  CD1       -7.6890    4.8410   -6.5160 C.3    21  TRP21       0.1166
     38  NE1       -8.1330    3.9500   -7.4630 N.pl3  21  TRP21      -0.2376
     39  CE2       -7.5380    2.7170   -7.2510 C.ar   21  TRP21       0.0614
     40  CZ2       -7.6290    1.4500   -7.9070 C.ar   21  TRP21       0.0158
     41  CH2       -6.8640    0.4030   -7.4010 C.ar   21  TRP21       0.0013
     42  CZ3       -6.2010    0.4890   -6.1600 C.ar   21  TRP21      -0.0002
     43  CE3       -6.2390    1.7600   -5.4750 C.ar   21  TRP21      -0.0030
     44  CD2       -6.8380    2.9140   -6.0230 C.ar   21  TRP21      -0.0059
     45  C         -4.9400    6.5200   -5.1300 C.2    21  TRP21       0.3842
     46  O         -3.9390    6.3340   -5.8270 O.co2  21  TRP21      -0.2437
     47  OXT       -5.6270    7.5910   -5.1180 O.co2  21  TRP21      -0.2437
@<TRIPOS>BOND
     1    40    41   ar
     2    40    39   ar
     3    41    42   ar
     4    39    38    1
     5    39    44   ar
     6    42    43   ar
     7    38    37    1
     8    43    44   ar
     9    44    36    1
    10    37    36    1
    11    36    35    1
    12    47    45   ar
    13     5     4    1
    14    35    34    1
    15    45    34    1
    16    45    46   ar
    17    34    33    1
    18     8     7    2
    19     4     6    1
    20     4     3    1
    21     2     3    1
    22     2     1    1
    23     2     7    1
    24     7     9   am
    25    33    31   am
    26    32    31    2
    27    31    26    1
    28     9    10    1
    29    10    11    1
    30    10    15    1
    31    26    27    1
    32    26    25    1
    33    11    12    1
    34    13    12   ar
    35    27    29    1
    36    27    28    1
    37    29    30    1
    38    16    15    2
    39    15    17   am
    40    12    14   ar
    41    25    23   am
    42    17    18    1
    43    23    24    2
    44    23    18    1
    45    18    19    1
    46    19    21    1
    47    19    20    1
    48    21    22    1
