@<TRIPOS>MOLECULE
../ET1/ET1_17-21_50CONFORMERS_NOBACKBONE.pdb
 26 23 0 0 0
SMALL
GASTEIGER

@<TRIPOS>ATOM
      1  CB        -5.4700   -1.7730   -3.1120 C.3    17  LEU17       0.0000
      2  CG        -6.7900   -2.5440   -3.4740 C.3    17  LEU17       0.0000
      3  CD1       -7.0450   -2.3540   -4.9550 C.3    17  LEU17       0.0000
      4  CD2       -6.7910   -4.0540   -3.2680 C.3    17  LEU17       0.0000
      5  CB        -9.0330   -0.0920   -0.3620 C.3    18  ASP18       0.1258
      6  CG       -10.2330    0.4120    0.4010 C.2    18  ASP18       0.3654
      7  OD1      -11.1160    1.0220   -0.2680 O.co2  18  ASP18      -0.2456
      8  OD2      -10.4510    0.1630    1.6130 O.co2  18  ASP18      -0.2456
      9  CB        -5.4710    2.2040    3.1630 C.3    19  ILE19       0.0000
     10  CG2       -5.1840    3.1650    4.3090 C.3    19  ILE19       0.0000
     11  CG1       -6.1520    0.8640    3.6900 C.3    19  ILE19       0.0000
     12  CD1       -5.5640    0.1860    4.9100 C.3    19  ILE19       0.0000
     13  CB        -2.8050    5.3000    0.0680 C.3    20  ILE20       0.0000
     14  CG2       -2.8110    6.1260    1.4110 C.3    20  ILE20       0.0000
     15  CG1       -1.8290    4.1090    0.1720 C.3    20  ILE20       0.0000
     16  CD1       -0.3670    4.5410    0.3990 C.3    20  ILE20       0.0000
     17  CB        -4.4580    6.4030   -4.9110 C.3    21  TRP21       0.0066
     18  CG        -4.3280    6.3820   -6.4230 C.3    21  TRP21       0.0452
     19  CD1       -4.4150    7.5280   -7.1320 C.3    21  TRP21       0.1165
     20  NE1       -4.1980    7.3100   -8.4730 N.pl3  21  TRP21      -0.2376
     21  CE2       -4.0690    5.9840   -8.7560 C.ar   21  TRP21       0.0614
     22  CZ2       -3.7460    5.2670   -9.9520 C.ar   21  TRP21       0.0158
     23  CH2       -3.6540    3.8750   -9.8130 C.ar   21  TRP21       0.0013
     24  CZ3       -4.0280    3.2260   -8.6640 C.ar   21  TRP21      -0.0002
     25  CE3       -4.2890    4.0000   -7.5300 C.ar   21  TRP21      -0.0030
     26  CD2       -4.2870    5.3570   -7.4880 C.ar   21  TRP21      -0.0059
@<TRIPOS>BOND
     1    22    23   ar
     2    22    21   ar
     3    23    24   ar
     4    21    20    1
     5    21    26   ar
     6    24    25   ar
     7    20    19    1
     8    25    26   ar
     9    26    18    1
    10    19    18    1
    11    18    17    1
    12     3     2    1
    13     2     4    1
    14     2     1    1
    15     5     6    1
    16     7     6   ar
    17    13    15    1
    18    13    14    1
    19    15    16    1
    20     6     8   ar
    21     9    11    1
    22     9    10    1
    23    11    12    1
@<TRIPOS>MOLECULE
46174111
 29 32 0 0 0
SMALL
GASTEIGER

@<TRIPOS>ATOM
      1 CL         -3.7474   -0.0396   -1.5468 Cl      1  LIG11      -0.0762
      2 S          -2.2478    2.9235   -3.0617 S.O2    1  LIG11       0.0758
      3 S          -1.0739    5.8521   -5.9787 S.2     1  LIG11      -0.0918
      4 O          -4.8244    1.8536   -8.8743 O.3     1  LIG11      -0.4526
      5 O          -3.8336    2.7306  -10.8901 O.3     1  LIG11      -0.4526
      6 O          -4.3991    5.1359   -4.1576 O.2     1  LIG11      -0.2911
      7 O          -1.6513    3.3754   -1.8226 O.2     1  LIG11      -0.1499
      8 O          -1.8794    1.6563   -3.6572 O.2     1  LIG11      -0.1499
      9 O          -5.6044    1.9811   -4.2994 O.2     1  LIG11      -0.3364
     10 N          -3.9117    3.0250   -2.8889 N.pl3   1  LIG11      -0.1821
     11 N          -6.1725    0.7382   -4.5123 N.ar    1  LIG11      -0.0798
     12 C          -4.0741    5.2429   -7.6176 C.ar    1  LIG11      -0.0333
     13 C          -4.1898    6.0534   -6.3399 C.3     1  LIG11       0.0366
     14 C          -3.5395    5.7745   -8.8269 C.ar    1  LIG11      -0.0432
     15 C          -1.5832    4.0533   -4.2213 C.ar    1  LIG11       0.1261
     16 C          -2.2223    4.9915   -5.0209 C.ar    1  LIG11       0.0814
     17 C          -4.5543    3.9140   -7.6017 C.ar    1  LIG11      -0.0123
     18 C          -3.6330    5.3590   -5.0975 C.2     1  LIG11       0.1759
     19 C          -4.4314    3.1477   -8.7405 C.ar    1  LIG11       0.1665
     20 C          -3.8722    3.6464   -9.8865 C.ar    1  LIG11       0.1665
     21 C          -3.4224    4.9448   -9.9617 C.ar    1  LIG11      -0.0130
     22 C          -3.0337    7.1860   -8.9766 C.3     1  LIG11      -0.0393
     23 C          -0.1610    4.0335   -4.4505 C.ar    1  LIG11      -0.0273
     24 C          -4.4360    1.5924  -10.2389 C.3     1  LIG11       0.2332
     25 C           0.2399    4.9537   -5.3861 C.ar    1  LIG11      -0.0217
     26 C          -4.6486    1.8946   -3.3327 C.ar    1  LIG11       0.2554
     27 C          -4.6291    0.6070   -2.8450 C.ar    1  LIG11       0.1262
     28 C          -5.5897   -0.0806   -3.6257 C.ar    1  LIG11       0.1009
     29 C          -6.0192   -1.4950   -3.5359 C.3     1  LIG11      -0.0176
@<TRIPOS>BOND
     1     1    27    1
     2     2    10    1
     3     2    15    1
     4     2     8    2
     5     2     7    2
     6     3    16   ar
     7     3    25   ar
     8     4    24    1
     9     4    19    1
    10     5    20    1
    11     5    24    1
    12     6    18    2
    13     9    11   ar
    14     9    26   ar
    15    10    26    1
    16    11    28   ar
    17    12    17   ar
    18    12    14   ar
    19    13    18    1
    20    13    12    1
    21    14    21   ar
    22    14    22    1
    23    15    23   ar
    24    15    16   ar
    25    16    18    1
    26    17    19   ar
    27    19    20   ar
    28    20    21   ar
    29    23    25   ar
    30    26    27   ar
    31    27    28   ar
    32    28    29    1
@<TRIPOS>MOLECULE
../ET1/ET1_17-21_50CONFORMERS.pdb
 47 48 0 0 0
SMALL
GASTEIGER

@<TRIPOS>ATOM
      1  N         -4.2160    0.4160   -2.9520 N.3    17  LEU17      -0.1231
      2  CA        -5.4630   -0.2520   -3.4030 C.3    17  LEU17       0.1693
      3  CB        -5.4700   -1.7730   -3.1120 C.3    17  LEU17       0.0284
      4  CG        -6.7900   -2.5440   -3.4740 C.3    17  LEU17       0.0019
      5  CD1       -7.0450   -2.3540   -4.9550 C.3    17  LEU17       0.0001
      6  CD2       -6.7910   -4.0540   -3.2680 C.3    17  LEU17       0.0001
      7  C         -6.7900    0.3610   -2.8310 C.2    17  LEU17       0.2592
      8  O         -7.6240    0.6580   -3.6850 O.2    17  LEU17      -0.2718
      9  N         -6.9720    0.5400   -1.5390 N.am   18  ASP18      -0.1960
     10  CA        -8.1540    1.0840   -0.8410 C.3    18  ASP18       0.1840
     11  CB        -9.0330   -0.0920   -0.3620 C.3    18  ASP18       0.1450
     12  CG       -10.2330    0.4120    0.4010 C.2    18  ASP18       0.3671
     13  OD1      -11.1160    1.0220   -0.2680 O.co2  18  ASP18      -0.2456
     14  OD2      -10.4510    0.1630    1.6130 O.co2  18  ASP18      -0.2456
     15  C         -7.7900    2.1820    0.2340 C.2    18  ASP18       0.2622
     16  O         -8.3300    3.2620    0.2010 O.2    18  ASP18      -0.2715
     17  N         -6.8500    1.8540    1.1550 N.am   19  ILE19      -0.1963
     18  CA        -6.3420    2.8860    2.0970 C.3    19  ILE19       0.1727
     19  CB        -5.4710    2.2040    3.1630 C.3    19  ILE19       0.0290
     20  CG2       -5.1840    3.1650    4.3090 C.3    19  ILE19       0.0023
     21  CG1       -6.1520    0.8640    3.6900 C.3    19  ILE19       0.0022
     22  CD1       -5.5640    0.1860    4.9100 C.3    19  ILE19       0.0001
     23  C         -5.7590    4.0730    1.4210 C.2    19  ILE19       0.2616
     24  O         -6.0490    5.1730    1.8250 O.2    19  ILE19      -0.2715
     25  N         -4.8150    3.8950    0.4790 N.am   20  ILE20      -0.1963
     26  CA        -4.2330    4.9020   -0.4020 C.3    20  ILE20       0.1727
     27  CB        -2.8050    5.3000    0.0680 C.3    20  ILE20       0.0290
     28  CG2       -2.8110    6.1260    1.4110 C.3    20  ILE20       0.0023
     29  CG1       -1.8290    4.1090    0.1720 C.3    20  ILE20       0.0022
     30  CD1       -0.3670    4.5410    0.3990 C.3    20  ILE20       0.0001
     31  C         -4.1810    4.4800   -1.8450 C.2    20  ILE20       0.2617
     32  O         -4.4770    3.2490   -2.1480 O.2    20  ILE20      -0.2715
     33  N         -3.9440    5.5160   -2.6450 N.am   21  TRP21      -0.1941
     34  CA        -3.5940    5.3680   -4.0770 C.3    21  TRP21       0.1982
     35  CB        -4.4580    6.4030   -4.9110 C.3    21  TRP21       0.0394
     36  CG        -4.3280    6.3820   -6.4230 C.3    21  TRP21       0.0475
     37  CD1       -4.4150    7.5280   -7.1320 C.3    21  TRP21       0.1166
     38  NE1       -4.1980    7.3100   -8.4730 N.pl3  21  TRP21      -0.2376
     39  CE2       -4.0690    5.9840   -8.7560 C.ar   21  TRP21       0.0614
     40  CZ2       -3.7460    5.2670   -9.9520 C.ar   21  TRP21       0.0158
     41  CH2       -3.6540    3.8750   -9.8130 C.ar   21  TRP21       0.0013
     42  CZ3       -4.0280    3.2260   -8.6640 C.ar   21  TRP21      -0.0002
     43  CE3       -4.2890    4.0000   -7.5300 C.ar   21  TRP21      -0.0030
     44  CD2       -4.2870    5.3570   -7.4880 C.ar   21  TRP21      -0.0059
     45  C         -2.1160    5.4700   -4.2830 C.2    21  TRP21       0.3842
     46  O         -1.4560    6.4110   -3.8260 O.co2  21  TRP21      -0.2437
     47  OXT       -1.5070    4.6100   -5.0100 O.co2  21  TRP21      -0.2437
@<TRIPOS>BOND
     1    40    41   ar
     2    40    39   ar
     3    41    42   ar
     4    39    38    1
     5    39    44   ar
     6    42    43   ar
     7    38    37    1
     8    43    44   ar
     9    44    36    1
    10    37    36    1
    11    36    35    1
    12    47    45   ar
    13     5     4    1
    14    35    34    1
    15    45    34    1
    16    45    46   ar
    17    34    33    1
    18     8     7    2
    19     4     6    1
    20     4     3    1
    21     2     3    1
    22     2     1    1
    23     2     7    1
    24     7     9   am
    25    33    31   am
    26    32    31    2
    27    31    26    1
    28     9    10    1
    29    10    11    1
    30    10    15    1
    31    26    27    1
    32    26    25    1
    33    11    12    1
    34    13    12   ar
    35    27    29    1
    36    27    28    1
    37    29    30    1
    38    16    15    2
    39    15    17   am
    40    12    14   ar
    41    25    23   am
    42    17    18    1
    43    23    24    2
    44    23    18    1
    45    18    19    1
    46    19    21    1
    47    19    20    1
    48    21    22    1
