@<TRIPOS>MOLECULE
../ET1/ET1_17-21_50CONFORMERS_NOBACKBONE.pdb
 26 23 0 0 0
SMALL
GASTEIGER

@<TRIPOS>ATOM
      1  CB        -6.0380   -1.5180   -0.0370 C.3    17  LEU17       0.0000
      2  CG        -7.1840   -2.4290   -0.2350 C.3    17  LEU17       0.0000
      3  CD1       -6.7970   -3.5870   -1.1730 C.3    17  LEU17       0.0000
      4  CD2       -7.8660   -3.1100    0.9420 C.3    17  LEU17       0.0000
      5  CB        -9.2220    2.1420    0.8650 C.3    18  ASP18       0.1258
      6  CG       -10.4510    3.0160    0.7920 C.2    18  ASP18       0.3654
      7  OD1      -11.1710    2.9190   -0.1710 O.co2  18  ASP18      -0.2456
      8  OD2      -10.5970    3.8410    1.7050 O.co2  18  ASP18      -0.2456
      9  CB        -5.7050    5.4320    2.5820 C.3    19  ILE19       0.0000
     10  CG2       -4.5690    4.4470    2.6960 C.3    19  ILE19       0.0000
     11  CG1       -5.3120    6.7960    3.2120 C.3    19  ILE19       0.0000
     12  CD1       -6.5720    7.7280    3.3490 C.3    19  ILE19       0.0000
     13  CB        -2.1810    5.4270   -1.2910 C.3    20  ILE20       0.0000
     14  CG2       -1.7020    6.8010   -0.7900 C.3    20  ILE20       0.0000
     15  CG1       -1.6700    4.3770   -0.2680 C.3    20  ILE20       0.0000
     16  CD1       -0.2050    4.1190   -0.3350 C.3    20  ILE20       0.0000
     17  CB        -6.5390    3.3040   -4.4160 C.3    21  TRP21       0.0066
     18  CG        -7.2490    2.3830   -5.4230 C.3    21  TRP21       0.0452
     19  CD1       -8.3550    2.7960   -6.1520 C.3    21  TRP21       0.1165
     20  NE1       -8.8630    1.7830   -6.9380 N.pl3  21  TRP21      -0.2376
     21  CE2       -8.0920    0.6800   -6.7530 C.ar   21  TRP21       0.0614
     22  CZ2       -8.2090   -0.5880   -7.3570 C.ar   21  TRP21       0.0158
     23  CH2       -7.2400   -1.5830   -7.0600 C.ar   21  TRP21       0.0013
     24  CZ3       -6.2600   -1.2970   -6.0270 C.ar   21  TRP21      -0.0002
     25  CE3       -6.2230   -0.0490   -5.4100 C.ar   21  TRP21      -0.0030
     26  CD2       -7.0720    0.9930   -5.8380 C.ar   21  TRP21      -0.0059
@<TRIPOS>BOND
     1    22    23   ar
     2    22    21   ar
     3    23    24   ar
     4    21    20    1
     5    21    26   ar
     6    24    25   ar
     7    20    19    1
     8    25    26   ar
     9    26    18    1
    10    19    18    1
    11    18    17    1
    12     3     2    1
    13     2     4    1
    14     2     1    1
    15     5     6    1
    16     7     6   ar
    17    13    15    1
    18    13    14    1
    19    15    16    1
    20     6     8   ar
    21     9    11    1
    22     9    10    1
    23    11    12    1
@<TRIPOS>MOLECULE
16004692
 32 34 0 0 0
SMALL
GASTEIGER

@<TRIPOS>ATOM
      1 BR         -8.9192   -2.3541   -9.4305 Br      1  LIG11      -0.0503
      2 BR          1.3506   -0.4194    0.5697 Br      1  LIG11      -0.0472
      3 S          -8.7511   -0.5524   -2.7774 S.O2    1  LIG11       0.1104
      4 O          -3.8900   -0.0463   -5.6136 O.3     1  LIG11      -0.4724
      5 O          -8.3687   -1.6096   -3.6758 O.2     1  LIG11      -0.1381
      6 O         -10.1384   -0.3038   -2.4703 O.2     1  LIG11      -0.1381
      7 O          -1.2701   -2.3652   -4.4045 O.3     1  LIG11      -0.4590
      8 N          -7.9132   -0.7686   -1.3385 N.3     1  LIG11      -0.1771
      9 N          -8.0979    0.8796   -3.3425 N.pl3   1  LIG11      -0.1889
     10 N          -6.0610    1.3381   -2.4516 N.ar    1  LIG11      -0.2186
     11 N          -3.9842    0.9218   -3.4982 N.ar    1  LIG11      -0.2008
     12 N           0.6299   -1.9698   -3.1953 N.ar    1  LIG11      -0.2022
     13 N          -1.4967   -1.4377   -2.2523 N.ar    1  LIG11      -0.2022
     14 C          -7.9181   -2.1665   -0.8576 C.3     1  LIG11       0.0185
     15 C          -6.0402    0.3693   -4.6775 C.ar    1  LIG11       0.0848
     16 C          -6.6868    0.8814   -3.5555 C.ar    1  LIG11       0.1532
     17 C          -6.9026   -2.3248    0.2684 C.3     1  LIG11      -0.0416
     18 C          -6.7161   -0.2456   -5.8389 C.ar    1  LIG11      -0.0094
     19 C          -4.6507    0.4194   -4.5562 C.ar    1  LIG11       0.2276
     20 C          -6.7268   -3.7896    0.6371 C.3     1  LIG11      -0.0641
     21 C          -7.7235    0.4175   -6.5594 C.ar    1  LIG11      -0.0527
     22 C          -6.3788   -1.5537   -6.2461 C.ar    1  LIG11      -0.0527
     23 C          -2.5706   -0.4766   -5.2574 C.3     1  LIG11       0.1252
     24 C          -8.3867   -0.2138   -7.6196 C.ar    1  LIG11      -0.0472
     25 C          -7.0190   -2.1775   -7.3193 C.ar    1  LIG11      -0.0472
     26 C          -4.7300    1.3661   -2.4918 C.ar    1  LIG11       0.1219
     27 C          -2.5888   -1.8823   -4.6507 C.3     1  LIG11       0.1267
     28 C          -8.0295   -1.5065   -7.9952 C.ar    1  LIG11       0.0179
     29 C          -0.7087   -1.8965   -3.2396 C.ar    1  LIG11       0.3180
     30 C           1.2124   -1.5264   -2.0612 C.ar    1  LIG11       0.0483
     31 C          -0.8608   -1.0126   -1.1391 C.ar    1  LIG11       0.0483
     32 C           0.5065   -1.0312   -0.9903 C.ar    1  LIG11       0.0543
@<TRIPOS>BOND
     1     1    28    1
     2     2    32    1
     3     3     5    2
     4     3     6    2
     5     3     8    1
     6     3     9    1
     7     4    19    1
     8     4    23    1
     9     7    27    1
    10     7    29    1
    11     8    14    1
    12     9    16    1
    13    10    16   ar
    14    10    26   ar
    15    11    19   ar
    16    11    26   ar
    17    12    29   ar
    18    12    30   ar
    19    13    29   ar
    20    13    31   ar
    21    14    17    1
    22    15    16   ar
    23    15    18    1
    24    15    19   ar
    25    17    20    1
    26    18    21   ar
    27    18    22   ar
    28    21    24   ar
    29    22    25   ar
    30    23    27    1
    31    24    28   ar
    32    25    28   ar
    33    30    32   ar
    34    31    32   ar
@<TRIPOS>MOLECULE
../ET1/ET1_17-21_50CONFORMERS.pdb
 47 48 0 0 0
SMALL
GASTEIGER

@<TRIPOS>ATOM
      1  N         -4.4120    0.0600   -1.0240 N.3    17  LEU17      -0.1231
      2  CA        -5.8150   -0.5190   -1.1630 C.3    17  LEU17       0.1693
      3  CB        -6.0380   -1.5180   -0.0370 C.3    17  LEU17       0.0284
      4  CG        -7.1840   -2.4290   -0.2350 C.3    17  LEU17       0.0019
      5  CD1       -6.7970   -3.5870   -1.1730 C.3    17  LEU17       0.0001
      6  CD2       -7.8660   -3.1100    0.9420 C.3    17  LEU17       0.0001
      7  C         -6.9320    0.5370   -1.3110 C.2    17  LEU17       0.2592
      8  O         -7.7610    0.4630   -2.2150 O.2    17  LEU17      -0.2718
      9  N         -7.1210    1.4070   -0.2900 N.am   18  ASP18      -0.1960
     10  CA        -8.2550    2.3870   -0.2680 C.3    18  ASP18       0.1840
     11  CB        -9.2220    2.1420    0.8650 C.3    18  ASP18       0.1450
     12  CG       -10.4510    3.0160    0.7920 C.2    18  ASP18       0.3671
     13  OD1      -11.1710    2.9190   -0.1710 O.co2  18  ASP18      -0.2456
     14  OD2      -10.5970    3.8410    1.7050 O.co2  18  ASP18      -0.2456
     15  C         -7.7530    3.7960   -0.1690 C.2    18  ASP18       0.2622
     16  O         -8.1350    4.6240   -0.9530 O.2    18  ASP18      -0.2715
     17  N         -6.9590    4.1300    0.8310 N.am   19  ILE19      -0.1963
     18  CA        -6.3530    5.4560    1.1480 C.3    19  ILE19       0.1727
     19  CB        -5.7050    5.4320    2.5820 C.3    19  ILE19       0.0290
     20  CG2       -4.5690    4.4470    2.6960 C.3    19  ILE19       0.0023
     21  CG1       -5.3120    6.7960    3.2120 C.3    19  ILE19       0.0022
     22  CD1       -6.5720    7.7280    3.3490 C.3    19  ILE19       0.0001
     23  C         -5.2830    6.0050    0.1410 C.2    19  ILE19       0.2616
     24  O         -5.0530    7.2120    0.0400 O.2    19  ILE19      -0.2715
     25  N         -4.5780    5.0880   -0.5010 N.am   20  ILE20      -0.1963
     26  CA        -3.7350    5.3890   -1.6400 C.3    20  ILE20       0.1727
     27  CB        -2.1810    5.4270   -1.2910 C.3    20  ILE20       0.0290
     28  CG2       -1.7020    6.8010   -0.7900 C.3    20  ILE20       0.0023
     29  CG1       -1.6700    4.3770   -0.2680 C.3    20  ILE20       0.0022
     30  CD1       -0.2050    4.1190   -0.3350 C.3    20  ILE20       0.0001
     31  C         -4.0940    4.4380   -2.7850 C.2    20  ILE20       0.2617
     32  O         -3.6300    3.2730   -2.7920 O.2    20  ILE20      -0.2715
     33  N         -4.8770    4.9360   -3.7880 N.am   21  TRP21      -0.1941
     34  CA        -5.3760    4.2020   -4.9720 C.3    21  TRP21       0.1982
     35  CB        -6.5390    3.3040   -4.4160 C.3    21  TRP21       0.0394
     36  CG        -7.2490    2.3830   -5.4230 C.3    21  TRP21       0.0475
     37  CD1       -8.3550    2.7960   -6.1520 C.3    21  TRP21       0.1166
     38  NE1       -8.8630    1.7830   -6.9380 N.pl3  21  TRP21      -0.2376
     39  CE2       -8.0920    0.6800   -6.7530 C.ar   21  TRP21       0.0614
     40  CZ2       -8.2090   -0.5880   -7.3570 C.ar   21  TRP21       0.0158
     41  CH2       -7.2400   -1.5830   -7.0600 C.ar   21  TRP21       0.0013
     42  CZ3       -6.2600   -1.2970   -6.0270 C.ar   21  TRP21      -0.0002
     43  CE3       -6.2230   -0.0490   -5.4100 C.ar   21  TRP21      -0.0030
     44  CD2       -7.0720    0.9930   -5.8380 C.ar   21  TRP21      -0.0059
     45  C         -5.7150    5.0760   -6.2070 C.2    21  TRP21       0.3842
     46  O         -6.4530    6.0880   -6.0380 O.co2  21  TRP21      -0.2437
     47  OXT       -5.3280    4.6980   -7.3490 O.co2  21  TRP21      -0.2437
@<TRIPOS>BOND
     1    40    41   ar
     2    40    39   ar
     3    41    42   ar
     4    39    38    1
     5    39    44   ar
     6    42    43   ar
     7    38    37    1
     8    43    44   ar
     9    44    36    1
    10    37    36    1
    11    36    35    1
    12    47    45   ar
    13     5     4    1
    14    35    34    1
    15    45    34    1
    16    45    46   ar
    17    34    33    1
    18     8     7    2
    19     4     6    1
    20     4     3    1
    21     2     3    1
    22     2     1    1
    23     2     7    1
    24     7     9   am
    25    33    31   am
    26    32    31    2
    27    31    26    1
    28     9    10    1
    29    10    11    1
    30    10    15    1
    31    26    27    1
    32    26    25    1
    33    11    12    1
    34    13    12   ar
    35    27    29    1
    36    27    28    1
    37    29    30    1
    38    16    15    2
    39    15    17   am
    40    12    14   ar
    41    25    23   am
    42    17    18    1
    43    23    24    2
    44    23    18    1
    45    18    19    1
    46    19    21    1
    47    19    20    1
    48    21    22    1
