@<TRIPOS>MOLECULE
../ET1/ET1_17-21_50CONFORMERS_NOBACKBONE.pdb
 26 23 0 0 0
SMALL
GASTEIGER

@<TRIPOS>ATOM
      1  CB        -5.6870   -2.2030   -1.4760 C.3    17  LEU17       0.0000
      2  CG        -6.5780   -3.3140   -2.1060 C.3    17  LEU17       0.0000
      3  CD1       -6.0780   -4.7200   -1.7540 C.3    17  LEU17       0.0000
      4  CD2       -7.9710   -3.2500   -1.5330 C.3    17  LEU17       0.0000
      5  CB        -9.0070   -0.0240    0.9260 C.3    18  ASP18       0.1258
      6  CG       -10.4570    0.5020    1.1290 C.2    18  ASP18       0.3654
      7  OD1      -10.7880    1.0320    2.1910 O.co2  18  ASP18      -0.2456
      8  OD2      -11.3330    0.4370    0.1930 O.co2  18  ASP18      -0.2456
      9  CB        -6.0580    3.8070    3.2370 C.3    19  ILE19       0.0000
     10  CG2       -6.1200    5.1280    4.0000 C.3    19  ILE19       0.0000
     11  CG1       -6.2000    2.5800    4.1980 C.3    19  ILE19       0.0000
     12  CD1       -7.5130    2.2700    4.8390 C.3    19  ILE19       0.0000
     13  CB        -3.0330    5.5560   -0.3510 C.3    20  ILE20       0.0000
     14  CG2       -2.9020    5.6830    1.2090 C.3    20  ILE20       0.0000
     15  CG1       -2.0950    4.4450   -0.8000 C.3    20  ILE20       0.0000
     16  CD1       -0.5490    4.7620   -0.5950 C.3    20  ILE20       0.0000
     17  CB        -6.4080    6.1050   -4.8300 C.3    21  TRP21       0.0066
     18  CG        -7.5590    5.3200   -4.2360 C.3    21  TRP21       0.0452
     19  CD1       -7.7000    5.1690   -2.9040 C.3    21  TRP21       0.1165
     20  NE1       -8.7800    4.3450   -2.6470 N.pl3  21  TRP21      -0.2376
     21  CE2       -9.3070    3.8490   -3.8480 C.ar   21  TRP21       0.0614
     22  CZ2      -10.3620    2.9460   -4.1440 C.ar   21  TRP21       0.0158
     23  CH2      -10.7140    2.7930   -5.4900 C.ar   21  TRP21       0.0013
     24  CZ3       -9.9390    3.3610   -6.4570 C.ar   21  TRP21      -0.0002
     25  CE3       -8.8750    4.2800   -6.1570 C.ar   21  TRP21      -0.0030
     26  CD2       -8.6280    4.5760   -4.8350 C.ar   21  TRP21      -0.0059
@<TRIPOS>BOND
     1    22    23   ar
     2    22    21   ar
     3    23    24   ar
     4    21    20    1
     5    21    26   ar
     6    24    25   ar
     7    20    19    1
     8    25    26   ar
     9    26    18    1
    10    19    18    1
    11    18    17    1
    12     3     2    1
    13     2     4    1
    14     2     1    1
    15     5     6    1
    16     7     6   ar
    17    13    15    1
    18    13    14    1
    19    15    16    1
    20     6     8   ar
    21     9    11    1
    22     9    10    1
    23    11    12    1
@<TRIPOS>MOLECULE
3047752
 39 43 0 0 0
SMALL
GASTEIGER

@<TRIPOS>ATOM
      1 O         -10.7473    2.8563    0.0863 O.co2   1  LIG11      -0.5495
      2 O         -10.3519    4.8674   -0.9076 O.co2   1  LIG11      -0.5495
      3 O         -12.3207    3.4417   -6.6265 O.3     1  LIG11      -0.4526
      4 O         -10.4742    4.6031   -7.6614 O.3     1  LIG11      -0.4526
      5 O          -2.8863    4.2381    0.4865 O.3     1  LIG11      -0.4951
      6 O          -4.5202    2.4069    4.8031 O.co2   1  LIG11      -0.5495
      7 O          -5.5202    0.5023    4.0503 O.co2   1  LIG11      -0.5495
      8 N          -7.1751   -0.1900   -1.4466 N.ar    1  LIG11      -0.2556
      9 C          -8.9662    3.0528   -1.4737 C.3     1  LIG11       0.0217
     10 C          -8.0712    2.0641   -0.6706 C.3     1  LIG11       0.0357
     11 C          -9.7000    2.2483   -2.5814 C.3     1  LIG11       0.0199
     12 C          -8.8726    0.9957   -2.6812 C.ar    1  LIG11      -0.0174
     13 C          -7.9891    0.8736   -1.6215 C.ar    1  LIG11       0.0534
     14 C          -6.6877    2.6450   -0.3271 C.ar    1  LIG11      -0.0344
     15 C          -9.8580    2.9512   -3.9275 C.ar    1  LIG11      -0.0356
     16 C         -10.1131    3.6487   -0.6656 C.2     1  LIG11       0.0466
     17 C          -8.9480   -0.0194   -3.6215 C.ar    1  LIG11      -0.0546
     18 C          -6.1924    2.7488    1.0006 C.ar    1  LIG11      -0.0395
     19 C          -5.8585    3.0759   -1.3867 C.ar    1  LIG11      -0.0542
     20 C          -7.2426   -1.1720   -2.3749 C.ar    1  LIG11       0.0416
     21 C         -11.0939    2.8703   -4.5972 C.ar    1  LIG11      -0.0124
     22 C          -8.1096   -1.1199   -3.4706 C.ar    1  LIG11      -0.0401
     23 C          -8.7839    3.6271   -4.5547 C.ar    1  LIG11      -0.0543
     24 C          -7.0104    2.2475    2.1887 C.3     1  LIG11      -0.0196
     25 C          -4.9022    3.2896    1.1951 C.ar    1  LIG11      -0.0165
     26 C          -6.3386   -2.3607   -2.1673 C.3     1  LIG11      -0.0104
     27 C          -6.5537    2.6172    3.6115 C.3     1  LIG11      -0.0003
     28 C         -11.2085    3.4513   -5.8422 C.ar    1  LIG11       0.1665
     29 C          -4.5906    3.6145   -1.1648 C.ar    1  LIG11      -0.0197
     30 C          -8.9321    4.2186   -5.8142 C.ar    1  LIG11      -0.0159
     31 C          -4.1060    3.7259    0.1308 C.ar    1  LIG11       0.1204
     32 C         -10.1554    4.1094   -6.4336 C.ar    1  LIG11       0.1662
     33 C          -7.1149   -3.5985   -1.7081 C.3     1  LIG11      -0.0479
     34 C          -7.7009    2.4130    4.6074 C.3     1  LIG11      -0.0570
     35 C          -6.2299   -4.8365   -1.5447 C.3     1  LIG11      -0.0556
     36 C          -5.4193    1.7529    4.1920 C.2     1  LIG11       0.0449
     37 C         -11.8554    4.2016   -7.7576 C.3     1  LIG11       0.2332
     38 C          -5.2530   -4.7316   -0.3841 C.3     1  LIG11      -0.0653
     39 C          -2.0007    4.5701   -0.5703 C.3     1  LIG11       0.0788
@<TRIPOS>BOND
     1     1    16   ar
     2     2    16   ar
     3     3    28    1
     4     3    37    1
     5     4    32    1
     6     4    37    1
     7     5    31    1
     8     5    39    1
     9     6    36   ar
    10     7    36   ar
    11     8    13   ar
    12     8    20   ar
    13     9    10    1
    14     9    11    1
    15     9    16    1
    16    10    13    1
    17    10    14    1
    18    11    12    1
    19    11    15    1
    20    12    13   ar
    21    12    17   ar
    22    14    18   ar
    23    14    19   ar
    24    15    21   ar
    25    15    23   ar
    26    17    22   ar
    27    18    24    1
    28    18    25   ar
    29    19    29   ar
    30    20    22   ar
    31    20    26    1
    32    21    28   ar
    33    23    30   ar
    34    24    27    1
    35    25    31   ar
    36    26    33    1
    37    27    34    1
    38    27    36    1
    39    28    32   ar
    40    29    31   ar
    41    30    32   ar
    42    33    35    1
    43    35    38    1
@<TRIPOS>MOLECULE
../ET1/ET1_17-21_50CONFORMERS.pdb
 47 48 0 0 0
SMALL
GASTEIGER

@<TRIPOS>ATOM
      1  N         -4.5760   -0.0490   -1.7820 N.3    17  LEU17      -0.1231
      2  CA        -5.7320   -0.8580   -2.1940 C.3    17  LEU17       0.1693
      3  CB        -5.6870   -2.2030   -1.4760 C.3    17  LEU17       0.0284
      4  CG        -6.5780   -3.3140   -2.1060 C.3    17  LEU17       0.0019
      5  CD1       -6.0780   -4.7200   -1.7540 C.3    17  LEU17       0.0001
      6  CD2       -7.9710   -3.2500   -1.5330 C.3    17  LEU17       0.0001
      7  C         -7.0000   -0.1040   -1.9690 C.2    17  LEU17       0.2592
      8  O         -7.7400    0.1890   -2.9100 O.2    17  LEU17      -0.2718
      9  N         -7.1900    0.2290   -0.6930 N.am   18  ASP18      -0.1960
     10  CA        -8.3770    0.8560   -0.1390 C.3    18  ASP18       0.1840
     11  CB        -9.0070   -0.0240    0.9260 C.3    18  ASP18       0.1450
     12  CG       -10.4570    0.5020    1.1290 C.2    18  ASP18       0.3671
     13  OD1      -10.7880    1.0320    2.1910 O.co2  18  ASP18      -0.2456
     14  OD2      -11.3330    0.4370    0.1930 O.co2  18  ASP18      -0.2456
     15  C         -8.1020    2.2830    0.4170 C.2    18  ASP18       0.2622
     16  O         -8.8910    3.2070    0.1090 O.2    18  ASP18      -0.2715
     17  N         -7.1560    2.4620    1.3530 N.am   19  ILE19      -0.1963
     18  CA        -6.8660    3.8040    1.9540 C.3    19  ILE19       0.1727
     19  CB        -6.0580    3.8070    3.2370 C.3    19  ILE19       0.0290
     20  CG2       -6.1200    5.1280    4.0000 C.3    19  ILE19       0.0023
     21  CG1       -6.2000    2.5800    4.1980 C.3    19  ILE19       0.0022
     22  CD1       -7.5130    2.2700    4.8390 C.3    19  ILE19       0.0001
     23  C         -6.2200    4.7890    0.8990 C.2    19  ILE19       0.2616
     24  O         -6.7400    5.9170    0.7130 O.2    19  ILE19      -0.2715
     25  N         -5.1080    4.3940    0.2390 N.am   20  ILE20      -0.1963
     26  CA        -4.4730    5.2890   -0.7870 C.3    20  ILE20       0.1727
     27  CB        -3.0330    5.5560   -0.3510 C.3    20  ILE20       0.0290
     28  CG2       -2.9020    5.6830    1.2090 C.3    20  ILE20       0.0023
     29  CG1       -2.0950    4.4450   -0.8000 C.3    20  ILE20       0.0022
     30  CD1       -0.5490    4.7620   -0.5950 C.3    20  ILE20       0.0001
     31  C         -4.6710    4.6840   -2.2420 C.2    20  ILE20       0.2617
     32  O         -4.9530    3.5160   -2.4910 O.2    20  ILE20      -0.2715
     33  N         -4.6180    5.5940   -3.2190 N.am   21  TRP21      -0.1941
     34  CA        -5.0230    5.5000   -4.6140 C.3    21  TRP21       0.1982
     35  CB        -6.4080    6.1050   -4.8300 C.3    21  TRP21       0.0394
     36  CG        -7.5590    5.3200   -4.2360 C.3    21  TRP21       0.0475
     37  CD1       -7.7000    5.1690   -2.9040 C.3    21  TRP21       0.1166
     38  NE1       -8.7800    4.3450   -2.6470 N.pl3  21  TRP21      -0.2376
     39  CE2       -9.3070    3.8490   -3.8480 C.ar   21  TRP21       0.0614
     40  CZ2      -10.3620    2.9460   -4.1440 C.ar   21  TRP21       0.0158
     41  CH2      -10.7140    2.7930   -5.4900 C.ar   21  TRP21       0.0013
     42  CZ3       -9.9390    3.3610   -6.4570 C.ar   21  TRP21      -0.0002
     43  CE3       -8.8750    4.2800   -6.1570 C.ar   21  TRP21      -0.0030
     44  CD2       -8.6280    4.5760   -4.8350 C.ar   21  TRP21      -0.0059
     45  C         -3.9680    6.1530   -5.5800 C.2    21  TRP21       0.3842
     46  O         -3.4960    7.2550   -5.2750 O.co2  21  TRP21      -0.2437
     47  OXT       -3.6110    5.4990   -6.5740 O.co2  21  TRP21      -0.2437
@<TRIPOS>BOND
     1    40    41   ar
     2    40    39   ar
     3    41    42   ar
     4    39    38    1
     5    39    44   ar
     6    42    43   ar
     7    38    37    1
     8    43    44   ar
     9    44    36    1
    10    37    36    1
    11    36    35    1
    12    47    45   ar
    13     5     4    1
    14    35    34    1
    15    45    34    1
    16    45    46   ar
    17    34    33    1
    18     8     7    2
    19     4     6    1
    20     4     3    1
    21     2     3    1
    22     2     1    1
    23     2     7    1
    24     7     9   am
    25    33    31   am
    26    32    31    2
    27    31    26    1
    28     9    10    1
    29    10    11    1
    30    10    15    1
    31    26    27    1
    32    26    25    1
    33    11    12    1
    34    13    12   ar
    35    27    29    1
    36    27    28    1
    37    29    30    1
    38    16    15    2
    39    15    17   am
    40    12    14   ar
    41    25    23   am
    42    17    18    1
    43    23    24    2
    44    23    18    1
    45    18    19    1
    46    19    21    1
    47    19    20    1
    48    21    22    1
