@<TRIPOS>MOLECULE
../ET1/ET1_17-21_50CONFORMERS_NOBACKBONE.pdb
 26 23 0 0 0
SMALL
GASTEIGER

@<TRIPOS>ATOM
      1  CB        -6.1850   -2.0250    0.0230 C.3    17  LEU17       0.0000
      2  CG        -7.2330   -3.1450    0.0240 C.3    17  LEU17       0.0000
      3  CD1       -7.0910   -4.1030   -1.1650 C.3    17  LEU17       0.0000
      4  CD2       -7.3150   -3.8840    1.2940 C.3    17  LEU17       0.0000
      5  CB        -9.2520    0.9570    1.6500 C.3    18  ASP18       0.1258
      6  CG       -10.7110    1.3620    2.1070 C.2    18  ASP18       0.3654
      7  OD1      -11.5770    1.6570    1.2290 O.co2  18  ASP18      -0.2456
      8  OD2      -10.8500    1.6470    3.3270 O.co2  18  ASP18      -0.2456
      9  CB        -5.8410    4.7000    2.5850 C.3    19  ILE19       0.0000
     10  CG2       -5.3230    6.1240    2.9590 C.3    19  ILE19       0.0000
     11  CG1       -6.3830    4.1050    3.9430 C.3    19  ILE19       0.0000
     12  CD1       -7.6300    4.7940    4.6160 C.3    19  ILE19       0.0000
     13  CB        -2.8500    5.7740   -1.3170 C.3    20  ILE20       0.0000
     14  CG2       -2.5200    6.4670   -0.0010 C.3    20  ILE20       0.0000
     15  CG1       -2.1620    4.4070   -1.5700 C.3    20  ILE20       0.0000
     16  CD1       -0.6680    4.4570   -1.4100 C.3    20  ILE20       0.0000
     17  CB        -6.4800    5.9390   -5.5290 C.3    21  TRP21       0.0066
     18  CG        -7.5080    5.3450   -4.6240 C.3    21  TRP21       0.0452
     19  CD1       -7.8630    5.8950   -3.4140 C.3    21  TRP21       0.1165
     20  NE1       -8.6910    5.0220   -2.6780 N.pl3  21  TRP21      -0.2376
     21  CE2       -9.0720    3.9970   -3.5170 C.ar   21  TRP21       0.0614
     22  CZ2       -9.7960    2.8120   -3.3260 C.ar   21  TRP21       0.0158
     23  CH2       -9.8130    1.7890   -4.2710 C.ar   21  TRP21       0.0013
     24  CZ3       -9.2530    1.9610   -5.5170 C.ar   21  TRP21      -0.0002
     25  CE3       -8.3960    3.0060   -5.6370 C.ar   21  TRP21      -0.0030
     26  CD2       -8.3060    4.1210   -4.7250 C.ar   21  TRP21      -0.0059
@<TRIPOS>BOND
     1    22    23   ar
     2    22    21   ar
     3    23    24   ar
     4    21    20    1
     5    21    26   ar
     6    24    25   ar
     7    20    19    1
     8    25    26   ar
     9    26    18    1
    10    19    18    1
    11    18    17    1
    12     3     2    1
    13     2     4    1
    14     2     1    1
    15     5     6    1
    16     7     6   ar
    17    13    15    1
    18    13    14    1
    19    15    16    1
    20     6     8   ar
    21     9    11    1
    22     9    10    1
    23    11    12    1
@<TRIPOS>MOLECULE
11672244
 53 58 0 0 0
SMALL
GASTEIGER

@<TRIPOS>ATOM
      1 O          -5.3459    5.1634   -1.4348 O.3     1  LIG11      -0.4607
      2 O           0.2771    3.9325   -5.7586 O.2     1  LIG11      -0.2968
      3 O          -3.4792    5.8162    4.3502 O.co2   1  LIG11      -0.5492
      4 O          -4.1283    7.9767    4.5950 O.co2   1  LIG11      -0.5492
      5 O          -4.6616    6.0321   -3.4547 O.2     1  LIG11      -0.2456
      6 O         -10.1774    3.5017   -6.8225 O.3     1  LIG11      -0.5067
      7 O          -9.3470    3.2980   -0.4872 O.2     1  LIG11      -0.2705
      8 O          -9.2516   -0.9957    2.2032 O.co2   1  LIG11      -0.5452
      9 O         -11.0833   -0.0017    3.1440 O.co2   1  LIG11      -0.5452
     10 N          -8.8378    1.4508   -1.8272 N.am    1  LIG11      -0.2815
     11 C          -2.4352    6.2493   -0.2130 C.3     1  LIG11      -0.0160
     12 C          -2.1902    4.8099   -0.7967 C.3     1  LIG11      -0.0256
     13 C          -3.9602    6.3337    0.3868 C.3     1  LIG11       0.0318
     14 C          -0.9162    4.6024   -1.7410 C.3     1  LIG11      -0.0243
     15 C          -0.9432    5.7415   -2.8197 C.3     1  LIG11      -0.0235
     16 C          -2.2022    7.3232   -1.3078 C.3     1  LIG11      -0.0461
     17 C          -4.2432    5.1240    1.3098 C.2     1  LIG11      -0.0596
     18 C          -5.4321    5.2642    2.2856 C.3     1  LIG11      -0.0080
     19 C          -0.9360    7.1256   -2.1396 C.3     1  LIG11      -0.0483
     20 C          -4.1193    7.6787    1.1843 C.3     1  LIG11      -0.0392
     21 C          -2.3489    3.7515    0.3132 C.3     1  LIG11      -0.0306
     22 C          -5.3952    6.5869    3.0936 C.3     1  LIG11       0.0167
     23 C           0.0574    5.6090   -4.0160 C.3     1  LIG11       0.0267
     24 C          -1.0860    3.2547   -2.5012 C.3     1  LIG11      -0.0404
     25 C          -5.3511    7.7618    2.0905 C.3     1  LIG11      -0.0408
     26 C          -1.4109    6.5414    0.9326 C.3     1  LIG11      -0.0584
     27 C          -3.4972    4.0022    1.2407 C.2     1  LIG11      -0.0835
     28 C          -5.0897    6.3804   -0.7155 C.3     1  LIG11       0.1025
     29 C           0.4173    4.5350   -0.9576 C.3     1  LIG11      -0.0590
     30 C          -5.7326    4.0335    3.1813 C.3     1  LIG11      -0.0405
     31 C          -6.6813    6.7233    3.9461 C.3     1  LIG11      -0.0412
     32 C          -0.0573    3.0200   -3.5977 C.3     1  LIG11       0.0069
     33 C          -6.9883    4.1837    4.0716 C.3     1  LIG11      -0.0343
     34 C           0.0495    4.1719   -4.5672 C.2     1  LIG11       0.1392
     35 C          -6.9343    5.5129    4.8462 C.3     1  LIG11      -0.0470
     36 C           1.5084    5.9910   -3.6893 C.3     1  LIG11      -0.0528
     37 C          -0.4108    6.5346   -5.1713 C.3     1  LIG11      -0.0528
     38 C          -4.2208    6.8077    4.1092 C.2     1  LIG11       0.0485
     39 C          -7.0267    3.0171    5.0791 C.3     1  LIG11      -0.0598
     40 C          -8.2701    4.1034    3.2195 C.3     1  LIG11      -0.0598
     41 C          -5.3121    5.2446   -2.7803 C.2     1  LIG11       0.3320
     42 C          -6.2494    4.2989   -3.4165 C.2     1  LIG11       0.0231
     43 C          -7.4053    3.9290   -2.8386 C.2     1  LIG11      -0.0460
     44 C          -8.4645    3.2026   -3.5655 C.ar    1  LIG11      -0.0001
     45 C          -9.0889    2.0329   -3.0881 C.ar    1  LIG11       0.0411
     46 C          -8.8530    3.7013   -4.8268 C.ar    1  LIG11      -0.0113
     47 C          -9.9968    1.3411   -3.9094 C.ar    1  LIG11      -0.0364
     48 C          -9.7914    3.0259   -5.6035 C.ar    1  LIG11       0.1175
     49 C         -10.3562    1.8424   -5.1596 C.ar    1  LIG11      -0.0184
     50 C          -9.0383    2.1238   -0.6303 C.2     1  LIG11       0.2411
     51 C          -9.0054    1.1519    0.4885 C.2     1  LIG11       0.0021
     52 C         -10.0357    1.0634    1.3410 C.2     1  LIG11      -0.0344
     53 C         -10.1090   -0.0783    2.3445 C.2     1  LIG11       0.0647
@<TRIPOS>BOND
     1     1    41    1
     2     1    28    1
     3     2    34    2
     4     3    38   ar
     5     4    38   ar
     6     5    41    2
     7     6    48    1
     8     7    50    2
     9     8    53   ar
    10     9    53   ar
    11    10    45    1
    12    10    50   am
    13    11    16    1
    14    11    12    1
    15    11    26    1
    16    11    13    1
    17    12    14    1
    18    13    20    1
    19    13    17    1
    20    13    28    1
    21    14    15    1
    22    14    24    1
    23    14    29    1
    24    15    19    1
    25    15    23    1
    26    16    19    1
    27    17    18    1
    28    17    27    2
    29    18    30    1
    30    18    22    1
    31    20    25    1
    32    21    27    1
    33    21    12    1
    34    22    31    1
    35    22    25    1
    36    22    38    1
    37    23    34    1
    38    23    37    1
    39    23    36    1
    40    24    32    1
    41    30    33    1
    42    31    35    1
    43    32    34    1
    44    33    35    1
    45    33    40    1
    46    33    39    1
    47    41    42    1
    48    42    43    2
    49    43    44    1
    50    44    46   ar
    51    44    45   ar
    52    45    47   ar
    53    46    48   ar
    54    47    49   ar
    55    48    49   ar
    56    50    51    1
    57    51    52    2
    58    52    53    1
@<TRIPOS>MOLECULE
../ET1/ET1_17-21_50CONFORMERS.pdb
 47 48 0 0 0
SMALL
GASTEIGER

@<TRIPOS>ATOM
      1  N         -5.1220   -0.1670   -1.1960 N.3    17  LEU17      -0.1231
      2  CA        -6.2500   -1.0200   -1.1700 C.3    17  LEU17       0.1693
      3  CB        -6.1850   -2.0250    0.0230 C.3    17  LEU17       0.0284
      4  CG        -7.2330   -3.1450    0.0240 C.3    17  LEU17       0.0019
      5  CD1       -7.0910   -4.1030   -1.1650 C.3    17  LEU17       0.0001
      6  CD2       -7.3150   -3.8840    1.2940 C.3    17  LEU17       0.0001
      7  C         -7.5770   -0.2120   -1.0750 C.2    17  LEU17       0.2592
      8  O         -8.4900   -0.4890   -1.8500 O.2    17  LEU17      -0.2718
      9  N         -7.6750    0.6750   -0.1440 N.am   18  ASP18      -0.1960
     10  CA        -8.7690    1.4940    0.3030 C.3    18  ASP18       0.1840
     11  CB        -9.2520    0.9570    1.6500 C.3    18  ASP18       0.1450
     12  CG       -10.7110    1.3620    2.1070 C.2    18  ASP18       0.3671
     13  OD1      -11.5770    1.6570    1.2290 O.co2  18  ASP18      -0.2456
     14  OD2      -10.8500    1.6470    3.3270 O.co2  18  ASP18      -0.2456
     15  C         -8.4200    2.9610    0.4830 C.2    18  ASP18       0.2622
     16  O         -9.1400    3.8210    0.0050 O.2    18  ASP18      -0.2715
     17  N         -7.3560    3.3090    1.1820 N.am   19  ILE19      -0.1963
     18  CA        -6.8520    4.7000    1.4380 C.3    19  ILE19       0.1727
     19  CB        -5.8410    4.7000    2.5850 C.3    19  ILE19       0.0290
     20  CG2       -5.3230    6.1240    2.9590 C.3    19  ILE19       0.0023
     21  CG1       -6.3830    4.1050    3.9430 C.3    19  ILE19       0.0022
     22  CD1       -7.6300    4.7940    4.6160 C.3    19  ILE19       0.0001
     23  C         -6.2690    5.4260    0.2030 C.2    19  ILE19       0.2616
     24  O         -6.7830    6.4780   -0.1650 O.2    19  ILE19      -0.2715
     25  N         -5.0370    5.0080   -0.3080 N.am   20  ILE20      -0.1963
     26  CA        -4.3660    5.6630   -1.4700 C.3    20  ILE20       0.1727
     27  CB        -2.8500    5.7740   -1.3170 C.3    20  ILE20       0.0290
     28  CG2       -2.5200    6.4670   -0.0010 C.3    20  ILE20       0.0023
     29  CG1       -2.1620    4.4070   -1.5700 C.3    20  ILE20       0.0022
     30  CD1       -0.6680    4.4570   -1.4100 C.3    20  ILE20       0.0001
     31  C         -4.7850    4.9740   -2.7670 C.2    20  ILE20       0.2617
     32  O         -5.1110    3.7960   -2.7510 O.2    20  ILE20      -0.2715
     33  N         -4.7000    5.7720   -3.8140 N.am   21  TRP21      -0.1941
     34  CA        -5.0330    5.4840   -5.1810 C.3    21  TRP21       0.1982
     35  CB        -6.4800    5.9390   -5.5290 C.3    21  TRP21       0.0394
     36  CG        -7.5080    5.3450   -4.6240 C.3    21  TRP21       0.0475
     37  CD1       -7.8630    5.8950   -3.4140 C.3    21  TRP21       0.1166
     38  NE1       -8.6910    5.0220   -2.6780 N.pl3  21  TRP21      -0.2376
     39  CE2       -9.0720    3.9970   -3.5170 C.ar   21  TRP21       0.0614
     40  CZ2       -9.7960    2.8120   -3.3260 C.ar   21  TRP21       0.0158
     41  CH2       -9.8130    1.7890   -4.2710 C.ar   21  TRP21       0.0013
     42  CZ3       -9.2530    1.9610   -5.5170 C.ar   21  TRP21      -0.0002
     43  CE3       -8.3960    3.0060   -5.6370 C.ar   21  TRP21      -0.0030
     44  CD2       -8.3060    4.1210   -4.7250 C.ar   21  TRP21      -0.0059
     45  C         -3.9700    6.2220   -6.0900 C.2    21  TRP21       0.3842
     46  O         -3.4270    7.2250   -5.6040 O.co2  21  TRP21      -0.2437
     47  OXT       -3.7560    5.7930   -7.2710 O.co2  21  TRP21      -0.2437
@<TRIPOS>BOND
     1    40    41   ar
     2    40    39   ar
     3    41    42   ar
     4    39    38    1
     5    39    44   ar
     6    42    43   ar
     7    38    37    1
     8    43    44   ar
     9    44    36    1
    10    37    36    1
    11    36    35    1
    12    47    45   ar
    13     5     4    1
    14    35    34    1
    15    45    34    1
    16    45    46   ar
    17    34    33    1
    18     8     7    2
    19     4     6    1
    20     4     3    1
    21     2     3    1
    22     2     1    1
    23     2     7    1
    24     7     9   am
    25    33    31   am
    26    32    31    2
    27    31    26    1
    28     9    10    1
    29    10    11    1
    30    10    15    1
    31    26    27    1
    32    26    25    1
    33    11    12    1
    34    13    12   ar
    35    27    29    1
    36    27    28    1
    37    29    30    1
    38    16    15    2
    39    15    17   am
    40    12    14   ar
    41    25    23   am
    42    17    18    1
    43    23    24    2
    44    23    18    1
    45    18    19    1
    46    19    21    1
    47    19    20    1
    48    21    22    1
