@<TRIPOS>MOLECULE
../ET1/ET1_17-21_50CONFORMERS_NOBACKBONE.pdb
 26 23 0 0 0
SMALL
GASTEIGER

@<TRIPOS>ATOM
      1  CB        -6.4530   -2.7120   -1.5090 C.3    17  LEU17       0.0000
      2  CG        -7.8520   -3.4210   -1.6270 C.3    17  LEU17       0.0000
      3  CD1       -8.2420   -3.4830   -3.1120 C.3    17  LEU17       0.0000
      4  CD2       -7.8840   -4.9360   -1.2500 C.3    17  LEU17       0.0000
      5  CB        -9.3430    0.2160    1.1530 C.3    18  ASP18       0.1258
      6  CG       -10.6890    0.7860    1.3810 C.2    18  ASP18       0.3654
      7  OD1      -11.0270    1.1820    2.4820 O.co2  18  ASP18      -0.2456
      8  OD2      -11.4830    0.7020    0.3740 O.co2  18  ASP18      -0.2456
      9  CB        -5.5510    3.1290    3.3680 C.3    19  ILE19       0.0000
     10  CG2       -5.3620    4.4080    4.2770 C.3    19  ILE19       0.0000
     11  CG1       -5.9730    1.9220    4.1740 C.3    19  ILE19       0.0000
     12  CD1       -7.2610    2.0620    4.9600 C.3    19  ILE19       0.0000
     13  CB        -2.6820    5.8720    0.2320 C.3    20  ILE20       0.0000
     14  CG2       -2.6210    6.4220    1.7090 C.3    20  ILE20       0.0000
     15  CG1       -1.6860    4.7460    0.0490 C.3    20  ILE20       0.0000
     16  CD1       -0.2380    5.0860    0.2240 C.3    20  ILE20       0.0000
     17  CB        -5.8890    6.4760   -4.1350 C.3    21  TRP21       0.0066
     18  CG        -6.9060    5.8100   -3.3100 C.3    21  TRP21       0.0452
     19  CD1       -7.1820    6.1250   -2.0440 C.3    21  TRP21       0.1165
     20  NE1       -8.1780    5.3590   -1.5660 N.pl3  21  TRP21      -0.2376
     21  CE2       -8.7010    4.5190   -2.5190 C.ar   21  TRP21       0.0614
     22  CZ2       -9.7180    3.5930   -2.5470 C.ar   21  TRP21       0.0158
     23  CH2       -9.8630    2.7900   -3.6390 C.ar   21  TRP21       0.0013
     24  CZ3       -9.0980    3.0010   -4.7700 C.ar   21  TRP21      -0.0002
     25  CE3       -8.1680    4.0800   -4.8000 C.ar   21  TRP21      -0.0030
     26  CD2       -7.9000    4.8450   -3.6530 C.ar   21  TRP21      -0.0059
@<TRIPOS>BOND
     1    22    23   ar
     2    22    21   ar
     3    23    24   ar
     4    21    20    1
     5    21    26   ar
     6    24    25   ar
     7    20    19    1
     8    25    26   ar
     9    26    18    1
    10    19    18    1
    11    18    17    1
    12     3     2    1
    13     2     4    1
    14     2     1    1
    15     5     6    1
    16     7     6   ar
    17    13    15    1
    18    13    14    1
    19    15    16    1
    20     6     8   ar
    21     9    11    1
    22     9    10    1
    23    11    12    1
@<TRIPOS>MOLECULE
11672244
 53 58 0 0 0
SMALL
GASTEIGER

@<TRIPOS>ATOM
      1 O          -5.1635    5.2678   -0.1486 O.3     1  LIG11      -0.4607
      2 O           0.4118    5.9510   -4.5544 O.2     1  LIG11      -0.2968
      3 O          -3.3231    4.0752    5.4824 O.co2   1  LIG11      -0.5492
      4 O          -4.3511    5.7580    6.6064 O.co2   1  LIG11      -0.5492
      5 O          -4.5385    6.8403   -1.7139 O.2     1  LIG11      -0.2456
      6 O          -9.7384    5.1426   -5.9805 O.3     1  LIG11      -0.5067
      7 O         -10.8220    1.2116   -1.0557 O.2     1  LIG11      -0.2705
      8 O          -7.9680   -1.8341    1.6319 O.co2   1  LIG11      -0.5452
      9 O          -9.9604   -1.9420    2.7515 O.co2   1  LIG11      -0.5452
     10 N          -8.6796    2.0082   -1.4760 N.am    1  LIG11      -0.2815
     11 C          -2.3321    6.0239    1.4293 C.3     1  LIG11      -0.0160
     12 C          -1.9998    4.8960    0.3848 C.3     1  LIG11      -0.0256
     13 C          -3.8566    5.7964    1.9953 C.3     1  LIG11       0.0318
     14 C          -0.7278    5.1106   -0.5580 C.3     1  LIG11      -0.0243
     15 C          -0.8424    6.5487   -1.1753 C.3     1  LIG11      -0.0235
     16 C          -2.1748    7.4258    0.7828 C.3     1  LIG11      -0.0461
     17 C          -4.0631    4.3229    2.4214 C.2     1  LIG11      -0.0596
     18 C          -5.2652    4.0322    3.3470 C.3     1  LIG11      -0.0080
     19 C          -0.9118    7.6089   -0.0575 C.3     1  LIG11      -0.0483
     20 C          -4.0966    6.7487    3.2207 C.3     1  LIG11      -0.0392
     21 C          -2.0792    3.5099    1.0546 C.3     1  LIG11      -0.0306
     22 C          -5.3596    4.9912    4.5617 C.3     1  LIG11       0.0167
     23 C           0.1454    6.9024   -2.3366 C.3     1  LIG11       0.0267
     24 C          -0.8198    4.1000   -1.7389 C.3     1  LIG11      -0.0404
     25 C          -5.3520    6.4482    4.0469 C.3     1  LIG11      -0.0408
     26 C          -1.3198    5.9626    2.6192 C.3     1  LIG11      -0.0584
     27 C          -3.2427    3.3463    1.9820 C.2     1  LIG11      -0.0835
     28 C          -4.9887    6.1660    0.9600 C.3     1  LIG11       0.1025
     29 C           0.6151    4.8622    0.1703 C.3     1  LIG11      -0.0590
     30 C          -5.4626    2.5507    3.7672 C.3     1  LIG11      -0.0405
     31 C          -6.6935    4.7416    5.3096 C.3     1  LIG11      -0.0412
     32 C           0.2042    4.3286   -2.8406 C.3     1  LIG11       0.0069
     33 C          -6.7507    2.2834    4.5810 C.3     1  LIG11      -0.0343
     34 C           0.2105    5.7481   -3.3523 C.2     1  LIG11       0.1392
     35 C          -6.8652    3.2851    5.7455 C.3     1  LIG11      -0.0470
     36 C           1.5765    7.2315   -1.8888 C.3     1  LIG11      -0.0528
     37 C          -0.3932    8.1424   -3.1001 C.3     1  LIG11      -0.0528
     38 C          -4.2390    4.9245    5.6564 C.2     1  LIG11       0.0485
     39 C          -6.6896    0.8537    5.1553 C.3     1  LIG11      -0.0598
     40 C          -7.9916    2.3637    3.6686 C.3     1  LIG11      -0.0598
     41 C          -5.1066    5.8084   -1.3816 C.2     1  LIG11       0.3320
     42 C          -5.9271    5.0496   -2.3465 C.2     1  LIG11       0.0231
     43 C          -7.0437    4.3993   -1.9746 C.2     1  LIG11      -0.0460
     44 C          -8.0825    3.9168   -2.9132 C.ar    1  LIG11      -0.0001
     45 C          -8.9293    2.8257   -2.6084 C.ar    1  LIG11       0.0411
     46 C          -8.3683    4.6975   -4.0558 C.ar    1  LIG11      -0.0113
     47 C          -9.9977    2.5306   -3.4737 C.ar    1  LIG11      -0.0364
     48 C          -9.4407    4.3850   -4.8862 C.ar    1  LIG11       0.1175
     49 C         -10.2528    3.3031   -4.6066 C.ar    1  LIG11      -0.0184
     50 C          -9.6109    1.1892   -0.8610 C.2     1  LIG11       0.2411
     51 C          -8.9906    0.2502    0.1060 C.2     1  LIG11       0.0021
     52 C          -9.7464   -0.4122    0.9944 C.2     1  LIG11      -0.0344
     53 C          -9.1560   -1.4921    1.8880 C.2     1  LIG11       0.0647
@<TRIPOS>BOND
     1     1    41    1
     2     1    28    1
     3     2    34    2
     4     3    38   ar
     5     4    38   ar
     6     5    41    2
     7     6    48    1
     8     7    50    2
     9     8    53   ar
    10     9    53   ar
    11    10    45    1
    12    10    50   am
    13    11    16    1
    14    11    12    1
    15    11    26    1
    16    11    13    1
    17    12    14    1
    18    13    20    1
    19    13    17    1
    20    13    28    1
    21    14    15    1
    22    14    24    1
    23    14    29    1
    24    15    19    1
    25    15    23    1
    26    16    19    1
    27    17    18    1
    28    17    27    2
    29    18    30    1
    30    18    22    1
    31    20    25    1
    32    21    27    1
    33    21    12    1
    34    22    31    1
    35    22    25    1
    36    22    38    1
    37    23    34    1
    38    23    37    1
    39    23    36    1
    40    24    32    1
    41    30    33    1
    42    31    35    1
    43    32    34    1
    44    33    35    1
    45    33    40    1
    46    33    39    1
    47    41    42    1
    48    42    43    2
    49    43    44    1
    50    44    46   ar
    51    44    45   ar
    52    45    47   ar
    53    46    48   ar
    54    47    49   ar
    55    48    49   ar
    56    50    51    1
    57    51    52    2
    58    52    53    1
@<TRIPOS>MOLECULE
../ET1/ET1_17-21_50CONFORMERS.pdb
 47 48 0 0 0
SMALL
GASTEIGER

@<TRIPOS>ATOM
      1  N         -5.0750   -0.6840   -1.4600 N.3    17  LEU17      -0.1231
      2  CA        -6.3230   -1.2690   -2.0240 C.3    17  LEU17       0.1693
      3  CB        -6.4530   -2.7120   -1.5090 C.3    17  LEU17       0.0284
      4  CG        -7.8520   -3.4210   -1.6270 C.3    17  LEU17       0.0019
      5  CD1       -8.2420   -3.4830   -3.1120 C.3    17  LEU17       0.0001
      6  CD2       -7.8840   -4.9360   -1.2500 C.3    17  LEU17       0.0001
      7  C         -7.5170   -0.4350   -1.5600 C.2    17  LEU17       0.2592
      8  O         -8.5840   -0.5170   -2.1010 O.2    17  LEU17      -0.2718
      9  N         -7.4270    0.2920   -0.4370 N.am   18  ASP18      -0.1960
     10  CA        -8.5550    1.0260    0.1610 C.3    18  ASP18       0.1840
     11  CB        -9.3430    0.2160    1.1530 C.3    18  ASP18       0.1450
     12  CG       -10.6890    0.7860    1.3810 C.2    18  ASP18       0.3671
     13  OD1      -11.0270    1.1820    2.4820 O.co2  18  ASP18      -0.2456
     14  OD2      -11.4830    0.7020    0.3740 O.co2  18  ASP18      -0.2456
     15  C         -8.0750    2.3090    0.8050 C.2    18  ASP18       0.2622
     16  O         -8.8600    3.2300    0.7900 O.2    18  ASP18      -0.2715
     17  N         -6.8520    2.3840    1.3680 N.am   19  ILE19      -0.1963
     18  CA        -6.4810    3.5140    2.1970 C.3    19  ILE19       0.1727
     19  CB        -5.5510    3.1290    3.3680 C.3    19  ILE19       0.0290
     20  CG2       -5.3620    4.4080    4.2770 C.3    19  ILE19       0.0023
     21  CG1       -5.9730    1.9220    4.1740 C.3    19  ILE19       0.0022
     22  CD1       -7.2610    2.0620    4.9600 C.3    19  ILE19       0.0001
     23  C         -5.9380    4.6850    1.2940 C.2    19  ILE19       0.2616
     24  O         -6.6070    5.7010    1.1620 O.2    19  ILE19      -0.2715
     25  N         -4.7480    4.5690    0.7150 N.am   20  ILE20      -0.1963
     26  CA        -4.1410    5.5460   -0.2020 C.3    20  ILE20       0.1727
     27  CB        -2.6820    5.8720    0.2320 C.3    20  ILE20       0.0290
     28  CG2       -2.6210    6.4220    1.7090 C.3    20  ILE20       0.0023
     29  CG1       -1.6860    4.7460    0.0490 C.3    20  ILE20       0.0022
     30  CD1       -0.2380    5.0860    0.2240 C.3    20  ILE20       0.0001
     31  C         -4.2210    5.0480   -1.6510 C.2    20  ILE20       0.2617
     32  O         -4.4240    3.8730   -1.9550 O.2    20  ILE20      -0.2715
     33  N         -4.1680    6.0200   -2.6190 N.am   21  TRP21      -0.1941
     34  CA        -4.4860    5.9330   -4.0290 C.3    21  TRP21       0.1982
     35  CB        -5.8890    6.4760   -4.1350 C.3    21  TRP21       0.0394
     36  CG        -6.9060    5.8100   -3.3100 C.3    21  TRP21       0.0475
     37  CD1       -7.1820    6.1250   -2.0440 C.3    21  TRP21       0.1166
     38  NE1       -8.1780    5.3590   -1.5660 N.pl3  21  TRP21      -0.2376
     39  CE2       -8.7010    4.5190   -2.5190 C.ar   21  TRP21       0.0614
     40  CZ2       -9.7180    3.5930   -2.5470 C.ar   21  TRP21       0.0158
     41  CH2       -9.8630    2.7900   -3.6390 C.ar   21  TRP21       0.0013
     42  CZ3       -9.0980    3.0010   -4.7700 C.ar   21  TRP21      -0.0002
     43  CE3       -8.1680    4.0800   -4.8000 C.ar   21  TRP21      -0.0030
     44  CD2       -7.9000    4.8450   -3.6530 C.ar   21  TRP21      -0.0059
     45  C         -3.4690    6.6300   -4.9650 C.2    21  TRP21       0.3842
     46  O         -3.0990    7.7710   -4.6320 O.co2  21  TRP21      -0.2437
     47  OXT       -3.1460    6.1810   -6.1060 O.co2  21  TRP21      -0.2437
@<TRIPOS>BOND
     1    40    41   ar
     2    40    39   ar
     3    41    42   ar
     4    39    38    1
     5    39    44   ar
     6    42    43   ar
     7    38    37    1
     8    43    44   ar
     9    44    36    1
    10    37    36    1
    11    36    35    1
    12    47    45   ar
    13     5     4    1
    14    35    34    1
    15    45    34    1
    16    45    46   ar
    17    34    33    1
    18     8     7    2
    19     4     6    1
    20     4     3    1
    21     2     3    1
    22     2     1    1
    23     2     7    1
    24     7     9   am
    25    33    31   am
    26    32    31    2
    27    31    26    1
    28     9    10    1
    29    10    11    1
    30    10    15    1
    31    26    27    1
    32    26    25    1
    33    11    12    1
    34    13    12   ar
    35    27    29    1
    36    27    28    1
    37    29    30    1
    38    16    15    2
    39    15    17   am
    40    12    14   ar
    41    25    23   am
    42    17    18    1
    43    23    24    2
    44    23    18    1
    45    18    19    1
    46    19    21    1
    47    19    20    1
    48    21    22    1
