@<TRIPOS>MOLECULE
../ET1/ET1_17-21_50CONFORMERS_NOBACKBONE.pdb
 26 23 0 0 0
SMALL
GASTEIGER

@<TRIPOS>ATOM
      1  CB        -5.7410   -1.6660   -0.9970 C.3    17  LEU17       0.0000
      2  CG        -7.0800   -2.4770   -1.0040 C.3    17  LEU17       0.0000
      3  CD1       -7.0720   -3.6360   -1.8940 C.3    17  LEU17       0.0000
      4  CD2       -7.2270   -3.0350    0.3960 C.3    17  LEU17       0.0000
      5  CB        -9.0140    2.0580   -0.6430 C.3    18  ASP18       0.1258
      6  CG        -9.9230    3.2540   -0.8450 C.2    18  ASP18       0.3654
      7  OD1      -10.4270    3.4060   -2.0000 O.co2  18  ASP18      -0.2456
      8  OD2      -10.1710    4.0160    0.1240 O.co2  18  ASP18      -0.2456
      9  CB        -5.1660    3.8070    3.1390 C.3    19  ILE19       0.0000
     10  CG2       -4.2870    4.9150    3.8120 C.3    19  ILE19       0.0000
     11  CG1       -6.4310    3.4720    3.9910 C.3    19  ILE19       0.0000
     12  CD1       -6.0780    2.8870    5.3860 C.3    19  ILE19       0.0000
     13  CB        -1.7990    4.4960   -1.1570 C.3    20  ILE20       0.0000
     14  CG2       -0.9550    4.5180   -2.4510 C.3    20  ILE20       0.0000
     15  CG1       -1.1240    5.3340   -0.0410 C.3    20  ILE20       0.0000
     16  CD1        0.3720    5.2830   -0.0060 C.3    20  ILE20       0.0000
     17  CB        -5.9730    3.7280   -4.7280 C.3    21  TRP21       0.0066
     18  CG        -6.5950    3.0710   -5.9210 C.3    21  TRP21       0.0452
     19  CD1       -7.4580    3.7380   -6.7610 C.3    21  TRP21       0.1165
     20  NE1       -7.8220    2.9010   -7.7810 N.pl3  21  TRP21      -0.2376
     21  CE2       -7.4510    1.6160   -7.4090 C.ar   21  TRP21       0.0614
     22  CZ2       -7.8370    0.3550   -7.8470 C.ar   21  TRP21       0.0158
     23  CH2       -7.2100   -0.7860   -7.3500 C.ar   21  TRP21       0.0013
     24  CZ3       -6.2620   -0.6970   -6.3170 C.ar   21  TRP21      -0.0002
     25  CE3       -5.9790    0.5650   -5.8550 C.ar   21  TRP21      -0.0030
     26  CD2       -6.5680    1.7210   -6.3420 C.ar   21  TRP21      -0.0059
@<TRIPOS>BOND
     1    22    23   ar
     2    22    21   ar
     3    23    24   ar
     4    21    20    1
     5    21    26   ar
     6    24    25   ar
     7    20    19    1
     8    25    26   ar
     9    26    18    1
    10    19    18    1
    11    18    17    1
    12     3     2    1
    13     2     4    1
    14     2     1    1
    15     5     6    1
    16     7     6   ar
    17    13    15    1
    18    13    14    1
    19    15    16    1
    20     6     8   ar
    21     9    11    1
    22     9    10    1
    23    11    12    1
@<TRIPOS>MOLECULE
23693553
 46 48 0 0 0
SMALL
GASTEIGER

@<TRIPOS>ATOM
      1 O          -5.4533    3.3436   -0.3988 O.2     1  LIG11      -0.2526
      2 O          -3.3492    4.4547   -2.9844 O.2     1  LIG11      -0.2731
      3 O          -6.0464    1.6256   -2.8642 O.2     1  LIG11      -0.2689
      4 O          -1.6842   -0.5219   -2.3233 O.co2   1  LIG11      -0.5479
      5 OXT        -2.5243    0.8520   -3.9477 O.co2   1  LIG11      -0.5479
      6 O          -6.0230   -3.2158   -7.2605 O.3     1  LIG11      -0.4515
      7 O          -4.4659   -2.5892   -5.6740 O.2     1  LIG11      -0.2227
      8 N          -5.3702    3.7977    1.8566 N.am    1  LIG11      -0.2801
      9 N          -3.6098    4.3626    0.3809 N.am    1  LIG11      -0.2879
     10 N          -3.9178    2.3474   -2.2976 N.am    1  LIG11      -0.2273
     11 N          -3.5539    2.6477   -5.2021 N.3     1  LIG11       0.2276
     12 N          -5.9551   -1.0531   -6.5046 N.ar    1  LIG11      -0.2526
     13 C          -4.7419    4.5279    2.9880 C.3     1  LIG11       0.0249
     14 C          -6.3238    2.6754    2.1157 C.3     1  LIG11       0.0249
     15 C          -5.3542    4.2711    4.3704 C.3     1  LIG11      -0.0344
     16 C          -6.7496    2.4551    3.5767 C.3     1  LIG11      -0.0344
     17 C          -5.6656    2.8055    4.5679 C.3     1  LIG11      -0.0497
     18 CA         -2.6819    3.9338   -0.6887 C.3     1  LIG11       0.1019
     19 C          -0.4160    5.2046    0.0254 C.3     1  LIG11      -0.0356
     20 C          -1.6372    5.0669   -0.9324 C.3     1  LIG11      -0.0210
     21 C          -4.8497    3.8139    0.5562 C.2     1  LIG11       0.3033
     22 C          -4.7649    6.0473    2.7529 C.3     1  LIG11      -0.0464
     23 C          -7.6186    2.7516    1.2830 C.3     1  LIG11      -0.0464
     24 C          -3.3432    3.6015   -2.0835 C.2     1  LIG11       0.2429
     25 C           0.4583    3.9401   -0.0082 C.3     1  LIG11      -0.0600
     26 C          -0.8165    5.5019    1.4767 C.3     1  LIG11      -0.0600
     27 C           0.4343    6.3918   -0.4828 C.3     1  LIG11      -0.0600
     28 CA         -3.3466    1.0922   -1.7186 C.3     1  LIG11       0.0730
     29 C          -4.3197    0.1938   -0.9314 C.3     1  LIG11      -0.0286
     30 C          -5.0059    2.2097   -3.1696 C.2     1  LIG11       0.2708
     31 CA         -4.8795    2.8918   -4.5513 C.3     1  LIG11       0.0579
     32 C          -4.9738   -0.9682   -1.6900 C.3     1  LIG11      -0.0513
     33 C          -6.0300    2.5599   -5.5108 C.3     1  LIG11       0.0261
     34 C          -2.4496    0.3669   -2.7668 C.2     1  LIG11       0.0626
     35 C          -6.1649    1.1717   -6.0660 C.ar    1  LIG11      -0.0158
     36 C          -5.8284   -1.8671   -0.7855 C.3     1  LIG11      -0.0558
     37 C          -7.1806    0.7805   -6.9950 C.ar    1  LIG11       0.0038
     38 C          -5.4440    0.0324   -5.7930 C.ar    1  LIG11       0.0202
     39 C          -7.0454   -0.5905   -7.2517 C.ar    1  LIG11       0.0598
     40 C          -6.9428   -1.1384   -0.0485 C.3     1  LIG11      -0.0653
     41 C          -8.2270    1.4968   -7.6204 C.ar    1  LIG11      -0.0523
     42 C          -7.9452   -1.2488   -8.1164 C.ar    1  LIG11      -0.0371
     43 C          -9.1131    0.8421   -8.4771 C.ar    1  LIG11      -0.0611
     44 C          -5.4043   -2.3530   -6.4210 C.2     1  LIG11       0.4196
     45 C          -8.9723   -0.5158   -8.7188 C.ar    1  LIG11      -0.0598
     46 C          -5.4974   -4.5446   -7.2520 C.3     1  LIG11       0.0835
@<TRIPOS>BOND
     1     1    21    2
     2     2    24    2
     3     3    30    2
     4     4    34   ar
     5     5    34   ar
     6     6    44    1
     7     6    46    1
     8     7    44    2
     9     8    13    1
    10     8    14    1
    11     9    21   am
    12    10    24   am
    13    10    30   am
    14    12    39   ar
    15    12    38   ar
    16    12    44   am
    17    13    15    1
    18    13    22    1
    19    14    16    1
    20    14    23    1
    21    15    17    1
    22    16    17    1
    23    18     9    1
    24    18    24    1
    25    18    20    1
    26    19    20    1
    27    19    27    1
    28    19    26    1
    29    19    25    1
    30    21     8   am
    31    28    34    1
    32    28    29    1
    33    28    10    1
    34    29    32    1
    35    31    33    1
    36    31    11    1
    37    31    30    1
    38    32    36    1
    39    33    35    1
    40    35    38   ar
    41    35    37   ar
    42    36    40    1
    43    37    39   ar
    44    37    41   ar
    45    39    42   ar
    46    41    43   ar
    47    42    45   ar
    48    43    45   ar
@<TRIPOS>MOLECULE
../ET1/ET1_17-21_50CONFORMERS.pdb
 47 48 0 0 0
SMALL
GASTEIGER

@<TRIPOS>ATOM
      1  N         -4.2790   -0.1190   -2.0470 N.3    17  LEU17      -0.1231
      2  CA        -5.5940   -0.7250   -2.2120 C.3    17  LEU17       0.1693
      3  CB        -5.7410   -1.6660   -0.9970 C.3    17  LEU17       0.0284
      4  CG        -7.0800   -2.4770   -1.0040 C.3    17  LEU17       0.0019
      5  CD1       -7.0720   -3.6360   -1.8940 C.3    17  LEU17       0.0001
      6  CD2       -7.2270   -3.0350    0.3960 C.3    17  LEU17       0.0001
      7  C         -6.7480    0.3610   -2.1680 C.2    17  LEU17       0.2592
      8  O         -7.6420    0.4260   -3.0190 O.2    17  LEU17      -0.2718
      9  N         -6.6830    1.1920   -1.0710 N.am   18  ASP18      -0.1960
     10  CA        -7.5670    2.3620   -1.0900 C.3    18  ASP18       0.1840
     11  CB        -9.0140    2.0580   -0.6430 C.3    18  ASP18       0.1450
     12  CG        -9.9230    3.2540   -0.8450 C.2    18  ASP18       0.3671
     13  OD1      -10.4270    3.4060   -2.0000 O.co2  18  ASP18      -0.2456
     14  OD2      -10.1710    4.0160    0.1240 O.co2  18  ASP18      -0.2456
     15  C         -6.9940    3.5030   -0.2290 C.2    18  ASP18       0.2622
     16  O         -7.0620    4.6530   -0.6570 O.2    18  ASP18      -0.2715
     17  N         -6.3850    3.3110    0.8920 N.am   19  ILE19      -0.1963
     18  CA        -5.6590    4.3450    1.7380 C.3    19  ILE19       0.1727
     19  CB        -5.1660    3.8070    3.1390 C.3    19  ILE19       0.0290
     20  CG2       -4.2870    4.9150    3.8120 C.3    19  ILE19       0.0023
     21  CG1       -6.4310    3.4720    3.9910 C.3    19  ILE19       0.0022
     22  CD1       -6.0780    2.8870    5.3860 C.3    19  ILE19       0.0001
     23  C         -4.5450    4.9360    0.8000 C.2    19  ILE19       0.2616
     24  O         -4.3460    6.1370    0.7840 O.2    19  ILE19      -0.2715
     25  N         -3.9360    4.1940   -0.1550 N.am   20  ILE20      -0.1963
     26  CA        -3.2610    4.7730   -1.3150 C.3    20  ILE20       0.1727
     27  CB        -1.7990    4.4960   -1.1570 C.3    20  ILE20       0.0290
     28  CG2       -0.9550    4.5180   -2.4510 C.3    20  ILE20       0.0023
     29  CG1       -1.1240    5.3340   -0.0410 C.3    20  ILE20       0.0022
     30  CD1        0.3720    5.2830   -0.0060 C.3    20  ILE20       0.0001
     31  C         -3.8840    4.0520   -2.5330 C.2    20  ILE20       0.2617
     32  O         -4.2680    2.8800   -2.4260 O.2    20  ILE20      -0.2715
     33  N         -4.0660    4.7980   -3.6400 N.am   21  TRP21      -0.1941
     34  CA        -4.5180    4.2280   -4.9240 C.3    21  TRP21       0.1982
     35  CB        -5.9730    3.7280   -4.7280 C.3    21  TRP21       0.0394
     36  CG        -6.5950    3.0710   -5.9210 C.3    21  TRP21       0.0475
     37  CD1       -7.4580    3.7380   -6.7610 C.3    21  TRP21       0.1166
     38  NE1       -7.8220    2.9010   -7.7810 N.pl3  21  TRP21      -0.2376
     39  CE2       -7.4510    1.6160   -7.4090 C.ar   21  TRP21       0.0614
     40  CZ2       -7.8370    0.3550   -7.8470 C.ar   21  TRP21       0.0158
     41  CH2       -7.2100   -0.7860   -7.3500 C.ar   21  TRP21       0.0013
     42  CZ3       -6.2620   -0.6970   -6.3170 C.ar   21  TRP21      -0.0002
     43  CE3       -5.9790    0.5650   -5.8550 C.ar   21  TRP21      -0.0030
     44  CD2       -6.5680    1.7210   -6.3420 C.ar   21  TRP21      -0.0059
     45  C         -4.3900    5.2420   -6.0420 C.2    21  TRP21       0.3842
     46  O         -3.6970    4.8840   -7.0030 O.co2  21  TRP21      -0.2437
     47  OXT       -4.9340    6.3240   -5.8780 O.co2  21  TRP21      -0.2437
@<TRIPOS>BOND
     1    40    41   ar
     2    40    39   ar
     3    41    42   ar
     4    39    38    1
     5    39    44   ar
     6    42    43   ar
     7    38    37    1
     8    43    44   ar
     9    44    36    1
    10    37    36    1
    11    36    35    1
    12    47    45   ar
    13     5     4    1
    14    35    34    1
    15    45    34    1
    16    45    46   ar
    17    34    33    1
    18     8     7    2
    19     4     6    1
    20     4     3    1
    21     2     3    1
    22     2     1    1
    23     2     7    1
    24     7     9   am
    25    33    31   am
    26    32    31    2
    27    31    26    1
    28     9    10    1
    29    10    11    1
    30    10    15    1
    31    26    27    1
    32    26    25    1
    33    11    12    1
    34    13    12   ar
    35    27    29    1
    36    27    28    1
    37    29    30    1
    38    16    15    2
    39    15    17   am
    40    12    14   ar
    41    25    23   am
    42    17    18    1
    43    23    24    2
    44    23    18    1
    45    18    19    1
    46    19    21    1
    47    19    20    1
    48    21    22    1
