@<TRIPOS>MOLECULE
../ET1/ET1_17-21_50CONFORMERS_NOBACKBONE.pdb
 26 23 0 0 0
SMALL
GASTEIGER

@<TRIPOS>ATOM
      1  CB        -6.3700   -1.8050   -0.2060 C.3    17  LEU17       0.0000
      2  CG        -7.6770   -2.6370   -0.2070 C.3    17  LEU17       0.0000
      3  CD1       -7.7720   -3.4980   -1.4100 C.3    17  LEU17       0.0000
      4  CD2       -7.8300   -3.5260    1.0180 C.3    17  LEU17       0.0000
      5  CB        -9.4620    1.8070    0.9100 C.3    18  ASP18       0.1258
      6  CG       -10.5680    2.8630    1.0760 C.2    18  ASP18       0.3654
      7  OD1      -11.5500    2.8380    0.3300 O.co2  18  ASP18      -0.2456
      8  OD2      -10.4140    3.6300    2.0110 O.co2  18  ASP18      -0.2456
      9  CB        -5.3050    4.5110    2.7070 C.3    19  ILE19       0.0000
     10  CG2       -4.4360    5.7350    3.1290 C.3    19  ILE19       0.0000
     11  CG1       -6.0230    3.8420    3.9750 C.3    19  ILE19       0.0000
     12  CD1       -6.9850    4.9020    4.6120 C.3    19  ILE19       0.0000
     13  CB        -2.4570    5.4700   -1.3450 C.3    20  ILE20       0.0000
     14  CG2       -2.1500    6.6250   -0.3180 C.3    20  ILE20       0.0000
     15  CG1       -1.7200    4.1500   -1.0860 C.3    20  ILE20       0.0000
     16  CD1       -0.1680    4.2940   -1.0740 C.3    20  ILE20       0.0000
     17  CB        -5.8830    4.8470   -5.8240 C.3    21  TRP21       0.0066
     18  CG        -6.9950    4.3220   -4.9430 C.3    21  TRP21       0.0452
     19  CD1       -7.3330    4.6770   -3.6820 C.3    21  TRP21       0.1165
     20  NE1       -8.3680    3.9550   -3.1920 N.pl3  21  TRP21      -0.2376
     21  CE2       -8.8970    3.0980   -4.1470 C.ar   21  TRP21       0.0614
     22  CZ2       -9.9180    2.1260   -4.1570 C.ar   21  TRP21       0.0158
     23  CH2      -10.1590    1.3550   -5.3180 C.ar   21  TRP21       0.0013
     24  CZ3       -9.3060    1.6050   -6.3710 C.ar   21  TRP21      -0.0002
     25  CE3       -8.2430    2.5870   -6.3550 C.ar   21  TRP21      -0.0030
     26  CD2       -8.0330    3.3480   -5.2670 C.ar   21  TRP21      -0.0059
@<TRIPOS>BOND
     1    22    23   ar
     2    22    21   ar
     3    23    24   ar
     4    21    20    1
     5    21    26   ar
     6    24    25   ar
     7    20    19    1
     8    25    26   ar
     9    26    18    1
    10    19    18    1
    11    18    17    1
    12     3     2    1
    13     2     4    1
    14     2     1    1
    15     5     6    1
    16     7     6   ar
    17    13    15    1
    18    13    14    1
    19    15    16    1
    20     6     8   ar
    21     9    11    1
    22     9    10    1
    23    11    12    1
@<TRIPOS>MOLECULE
*****
 39 42 0 0 0
SMALL
GASTEIGER

@<TRIPOS>ATOM
      1 C          -2.2600   -2.9442    1.7399 C.ar    1  LIG11       0.0483
      2 C          -2.9019   -3.9796    2.3792 C.ar    1  LIG11       0.0543
      3 C          -4.2758   -3.9570    2.3155 C.ar    1  LIG11       0.0483
      4 N          -4.9752   -3.0018    1.6674 N.ar    1  LIG11      -0.2022
      5 N          -2.9066   -1.9616    1.0771 N.ar    1  LIG11      -0.2022
      6 C         -12.5087   -2.5545   -1.5432 C.ar    1  LIG11      -0.0504
      7 C         -11.6726   -1.5195   -1.1254 C.ar    1  LIG11      -0.0583
      8 C         -10.5753   -1.1304   -1.9067 C.ar    1  LIG11      -0.0535
      9 C         -10.2557   -1.7742   -3.1182 C.ar    1  LIG11      -0.0094
     10 C         -11.1368   -2.7887   -3.5351 C.ar    1  LIG11      -0.0535
     11 C         -12.2525   -3.1616   -2.7728 C.ar    1  LIG11      -0.0583
     12 C          -9.2680    2.8167   -4.3032 C.ar    1  LIG11      -0.0561
     13 C         -10.1160    1.7912   -4.7269 C.ar    1  LIG11      -0.0348
     14 C          -9.9036    1.1953   -5.9671 C.ar    1  LIG11       0.1086
     15 C          -8.8934    1.6549   -6.8109 C.ar    1  LIG11      -0.0348
     16 C          -8.0473    2.6810   -6.3767 C.ar    1  LIG11      -0.0561
     17 C          -7.2703    4.3853   -4.5868 C.3     1  LIG11       0.0132
     18 C          -8.2045    3.2728   -5.1097 C.ar    1  LIG11      -0.0394
     19 C          -6.6046    3.9048   -3.2757 C.3     1  LIG11      -0.0537
     20 C          -8.0836    5.6758   -4.2903 C.3     1  LIG11       0.0533
     21 C          -6.1284    4.7493   -5.5642 C.3     1  LIG11      -0.0537
     22 O          -8.6444    6.2398   -5.4735 O.3     1  LIG11      -0.3942
     23 S         -10.9232   -0.1766   -6.4637 S.O2    1  LIG11       0.0735
     24 O         -12.0725   -0.2062   -5.5870 O.2     1  LIG11      -0.1499
     25 O         -11.0952   -0.0944   -7.9004 O.2     1  LIG11      -0.1499
     26 N         -10.0131   -1.5763   -6.1863 N.pl3   1  LIG11      -0.1988
     27 C          -9.0255   -1.4495   -3.8902 C.ar    1  LIG11       0.0847
     28 C          -7.7926   -1.1561   -3.3006 C.ar    1  LIG11       0.2276
     29 N          -6.6445   -0.9422   -3.9776 N.ar    1  LIG11      -0.2008
     30 C          -6.7048   -1.0327   -5.3022 C.ar    1  LIG11       0.1219
     31 N          -7.8048   -1.2905   -6.0028 N.ar    1  LIG11      -0.2186
     32 C          -8.9268   -1.4684   -5.2801 C.ar    1  LIG11       0.1524
     33 C         -13.6883   -2.9697   -0.7158 C.3     1  LIG11      -0.0397
     34 O          -7.7123   -1.1525   -1.9230 O.3     1  LIG11      -0.4724
     35 C          -6.5155   -0.6227   -1.3482 C.3     1  LIG11       0.1252
     36 C          -6.1359   -1.5007   -0.1622 C.3     1  LIG11       0.1267
     37 O          -4.8842   -1.0553    0.3559 O.3     1  LIG11      -0.4590
     38 C          -4.2448   -2.0486    1.0614 C.ar    1  LIG11       0.3180
     39 BR         -1.9664   -5.3374    3.2747 Br      1  LIG11      -0.0472
@<TRIPOS>BOND
     1     1     2   ar
     2     2     3   ar
     3     2    39    1
     4     3     4   ar
     5     4    38   ar
     6     5     1   ar
     7     6     7   ar
     8     6    33    1
     9     7     8   ar
    10     8     9   ar
    11     9    10   ar
    12    10    11   ar
    13    11     6   ar
    14    12    13   ar
    15    13    14   ar
    16    14    15   ar
    17    15    16   ar
    18    16    18   ar
    19    17    18    1
    20    17    21    1
    21    17    20    1
    22    17    19    1
    23    18    12   ar
    24    20    22    1
    25    23    26    1
    26    23    25    2
    27    23    24    2
    28    23    14    1
    29    26    32    1
    30    27    28   ar
    31    27     9    1
    32    28    29   ar
    33    29    30   ar
    34    30    31   ar
    35    31    32   ar
    36    32    27   ar
    37    34    35    1
    38    34    28    1
    39    35    36    1
    40    36    37    1
    41    37    38    1
    42    38     5   ar
@<TRIPOS>MOLECULE
../ET1/ET1_17-21_50CONFORMERS.pdb
 47 48 0 0 0
SMALL
GASTEIGER

@<TRIPOS>ATOM
      1  N         -4.9300    0.0250   -1.1410 N.3    17  LEU17      -0.1231
      2  CA        -6.2160   -0.6670   -1.2750 C.3    17  LEU17       0.1693
      3  CB        -6.3700   -1.8050   -0.2060 C.3    17  LEU17       0.0284
      4  CG        -7.6770   -2.6370   -0.2070 C.3    17  LEU17       0.0019
      5  CD1       -7.7720   -3.4980   -1.4100 C.3    17  LEU17       0.0001
      6  CD2       -7.8300   -3.5260    1.0180 C.3    17  LEU17       0.0001
      7  C         -7.4290    0.3110   -1.2070 C.2    17  LEU17       0.2592
      8  O         -8.2410    0.2990   -2.1470 O.2    17  LEU17      -0.2718
      9  N         -7.4630    1.1840   -0.2470 N.am   18  ASP18      -0.1960
     10  CA        -8.4450    2.2110   -0.1340 C.3    18  ASP18       0.1840
     11  CB        -9.4620    1.8070    0.9100 C.3    18  ASP18       0.1450
     12  CG       -10.5680    2.8630    1.0760 C.2    18  ASP18       0.3671
     13  OD1      -11.5500    2.8380    0.3300 O.co2  18  ASP18      -0.2456
     14  OD2      -10.4140    3.6300    2.0110 O.co2  18  ASP18      -0.2456
     15  C         -7.9300    3.6490    0.1720 C.2    18  ASP18       0.2622
     16  O         -8.3060    4.6610   -0.4000 O.2    18  ASP18      -0.2715
     17  N         -6.9560    3.7380    1.0780 N.am   19  ILE19      -0.1963
     18  CA        -6.2590    4.9510    1.5320 C.3    19  ILE19       0.1727
     19  CB        -5.3050    4.5110    2.7070 C.3    19  ILE19       0.0290
     20  CG2       -4.4360    5.7350    3.1290 C.3    19  ILE19       0.0023
     21  CG1       -6.0230    3.8420    3.9750 C.3    19  ILE19       0.0022
     22  CD1       -6.9850    4.9020    4.6120 C.3    19  ILE19       0.0001
     23  C         -5.5040    5.6430    0.3790 C.2    19  ILE19       0.2616
     24  O         -5.6940    6.8250    0.1220 O.2    19  ILE19      -0.2715
     25  N         -4.6970    4.8860   -0.3940 N.am   20  ILE20      -0.1963
     26  CA        -3.9560    5.3600   -1.5730 C.3    20  ILE20       0.1727
     27  CB        -2.4570    5.4700   -1.3450 C.3    20  ILE20       0.0290
     28  CG2       -2.1500    6.6250   -0.3180 C.3    20  ILE20       0.0023
     29  CG1       -1.7200    4.1500   -1.0860 C.3    20  ILE20       0.0022
     30  CD1       -0.1680    4.2940   -1.0740 C.3    20  ILE20       0.0001
     31  C         -4.2210    4.4780   -2.8270 C.2    20  ILE20       0.2617
     32  O         -4.5200    3.2710   -2.7150 O.2    20  ILE20      -0.2715
     33  N         -4.1970    5.0920   -4.0030 N.am   21  TRP21      -0.1941
     34  CA        -4.4600    4.5270   -5.3230 C.3    21  TRP21       0.1982
     35  CB        -5.8830    4.8470   -5.8240 C.3    21  TRP21       0.0394
     36  CG        -6.9950    4.3220   -4.9430 C.3    21  TRP21       0.0475
     37  CD1       -7.3330    4.6770   -3.6820 C.3    21  TRP21       0.1166
     38  NE1       -8.3680    3.9550   -3.1920 N.pl3  21  TRP21      -0.2376
     39  CE2       -8.8970    3.0980   -4.1470 C.ar   21  TRP21       0.0614
     40  CZ2       -9.9180    2.1260   -4.1570 C.ar   21  TRP21       0.0158
     41  CH2      -10.1590    1.3550   -5.3180 C.ar   21  TRP21       0.0013
     42  CZ3       -9.3060    1.6050   -6.3710 C.ar   21  TRP21      -0.0002
     43  CE3       -8.2430    2.5870   -6.3550 C.ar   21  TRP21      -0.0030
     44  CD2       -8.0330    3.3480   -5.2670 C.ar   21  TRP21      -0.0059
     45  C         -3.4540    4.8840   -6.4240 C.2    21  TRP21       0.3842
     46  O         -3.1280    6.1110   -6.4220 O.co2  21  TRP21      -0.2437
     47  OXT       -3.0220    4.0340   -7.2330 O.co2  21  TRP21      -0.2437
@<TRIPOS>BOND
     1    40    41   ar
     2    40    39   ar
     3    41    42   ar
     4    39    38    1
     5    39    44   ar
     6    42    43   ar
     7    38    37    1
     8    43    44   ar
     9    44    36    1
    10    37    36    1
    11    36    35    1
    12    47    45   ar
    13     5     4    1
    14    35    34    1
    15    45    34    1
    16    45    46   ar
    17    34    33    1
    18     8     7    2
    19     4     6    1
    20     4     3    1
    21     2     3    1
    22     2     1    1
    23     2     7    1
    24     7     9   am
    25    33    31   am
    26    32    31    2
    27    31    26    1
    28     9    10    1
    29    10    11    1
    30    10    15    1
    31    26    27    1
    32    26    25    1
    33    11    12    1
    34    13    12   ar
    35    27    29    1
    36    27    28    1
    37    29    30    1
    38    16    15    2
    39    15    17   am
    40    12    14   ar
    41    25    23   am
    42    17    18    1
    43    23    24    2
    44    23    18    1
    45    18    19    1
    46    19    21    1
    47    19    20    1
    48    21    22    1
