@<TRIPOS>MOLECULE
../ET1/ET1_17-21_50CONFORMERS_NOBACKBONE.pdb
 26 23 0 0 0
SMALL
GASTEIGER

@<TRIPOS>ATOM
      1  CB        -6.0450   -2.2240   -1.9800 C.3    17  LEU17       0.0000
      2  CG        -7.2790   -3.0720   -2.2900 C.3    17  LEU17       0.0000
      3  CD1       -7.6320   -2.9190   -3.7420 C.3    17  LEU17       0.0000
      4  CD2       -6.9950   -4.5210   -1.9860 C.3    17  LEU17       0.0000
      5  CB        -8.9650    0.3820    1.2000 C.3    18  ASP18       0.1258
      6  CG       -10.2610    1.0350    1.7020 C.2    18  ASP18       0.3654
      7  OD1      -10.4730    1.2090    2.9030 O.co2  18  ASP18      -0.2456
      8  OD2      -11.1470    1.2530    0.8550 O.co2  18  ASP18      -0.2456
      9  CB        -5.0970    3.3260    3.3970 C.3    19  ILE19       0.0000
     10  CG2       -4.7090    4.5060    4.3340 C.3    19  ILE19       0.0000
     11  CG1       -5.3530    1.9900    4.2150 C.3    19  ILE19       0.0000
     12  CD1       -6.7200    1.9780    4.9740 C.3    19  ILE19       0.0000
     13  CB        -2.7260    5.5100   -0.0200 C.3    20  ILE20       0.0000
     14  CG2       -2.5240    6.0620    1.4180 C.3    20  ILE20       0.0000
     15  CG1       -1.9180    4.2010   -0.0440 C.3    20  ILE20       0.0000
     16  CD1       -0.4640    4.2590    0.0730 C.3    20  ILE20       0.0000
     17  CB        -5.9960    6.4580   -4.2760 C.3    21  TRP21       0.0066
     18  CG        -7.1020    5.6850   -3.5800 C.3    21  TRP21       0.0452
     19  CD1       -7.5860    5.8870   -2.2840 C.3    21  TRP21       0.1165
     20  NE1       -8.5970    4.9670   -2.1300 N.pl3  21  TRP21      -0.2376
     21  CE2       -8.8270    4.1960   -3.2250 C.ar   21  TRP21       0.0614
     22  CZ2       -9.7120    3.1020   -3.3810 C.ar   21  TRP21       0.0158
     23  CH2       -9.6000    2.3640   -4.5630 C.ar   21  TRP21       0.0013
     24  CZ3       -8.7130    2.8140   -5.5460 C.ar   21  TRP21      -0.0002
     25  CE3       -7.8160    3.8360   -5.3890 C.ar   21  TRP21      -0.0030
     26  CD2       -7.8100    4.5550   -4.1150 C.ar   21  TRP21      -0.0059
@<TRIPOS>BOND
     1    22    23   ar
     2    22    21   ar
     3    23    24   ar
     4    21    20    1
     5    21    26   ar
     6    24    25   ar
     7    20    19    1
     8    25    26   ar
     9    26    18    1
    10    19    18    1
    11    18    17    1
    12     3     2    1
    13     2     4    1
    14     2     1    1
    15     5     6    1
    16     7     6   ar
    17    13    15    1
    18    13    14    1
    19    15    16    1
    20     6     8   ar
    21     9    11    1
    22     9    10    1
    23    11    12    1
@<TRIPOS>MOLECULE
11672244
 53 58 0 0 0
SMALL
GASTEIGER

@<TRIPOS>ATOM
      1 O          -5.8292    3.9978    0.4235 O.3     1  LIG11      -0.4607
      2 O          -9.9907    1.2053    5.6080 O.2     1  LIG11      -0.2968
      3 O           0.0447    3.9281    2.0136 O.co2   1  LIG11      -0.5492
      4 O           0.5255    6.1318    1.7599 O.co2   1  LIG11      -0.5492
      5 O          -7.7875    4.8539    1.2666 O.2     1  LIG11      -0.2456
      6 O          -9.3738    4.9299   -5.6709 O.3     1  LIG11      -0.5067
      7 O          -5.9451    0.4238   -2.6220 O.2     1  LIG11      -0.2705
      8 O          -7.7576   -4.1006   -1.1636 O.co2   1  LIG11      -0.5452
      9 O          -6.8685   -4.8600   -3.1282 O.co2   1  LIG11      -0.5452
     10 N          -8.2802    0.3303   -2.7375 N.am    1  LIG11      -0.2815
     11 C          -4.4466    4.0663    3.4427 C.3     1  LIG11      -0.0160
     12 C          -5.0918    2.6450    3.2536 C.3     1  LIG11      -0.0256
     13 C          -3.8926    4.6014    1.9926 C.3     1  LIG11       0.0318
     14 C          -6.0002    2.0801    4.4431 C.3     1  LIG11      -0.0243
     15 C          -7.0224    3.2061    4.8296 C.3     1  LIG11      -0.0235
     16 C          -5.4857    5.0483    4.0461 C.3     1  LIG11      -0.0461
     17 C          -3.0508    3.5100    1.2918 C.2     1  LIG11      -0.0596
     18 C          -2.1482    3.9761    0.1300 C.3     1  LIG11      -0.0080
     19 C          -6.2764    4.4949    5.2309 C.3     1  LIG11      -0.0483
     20 C          -3.0095    5.8800    2.2190 C.3     1  LIG11      -0.0392
     21 C          -4.0400    1.6517    2.7195 C.3     1  LIG11      -0.0306
     22 C          -1.2843    5.2196    0.4655 C.3     1  LIG11       0.0167
     23 C          -8.1799    2.8052    5.8044 C.3     1  LIG11       0.0267
     24 C          -6.8341    0.8844    3.8964 C.3     1  LIG11      -0.0404
     25 C          -2.2012    6.3419    1.0012 C.3     1  LIG11      -0.0408
     26 C          -3.2586    3.9866    4.4553 C.3     1  LIG11      -0.0584
     27 C          -3.1454    2.2154    1.6581 C.2     1  LIG11      -0.0835
     28 C          -5.0349    5.0487    0.9998 C.3     1  LIG11       0.1025
     29 C          -5.1730    1.5676    5.6470 C.3     1  LIG11      -0.0590
     30 C          -1.3183    2.8714   -0.5771 C.3     1  LIG11      -0.0405
     31 C          -0.5961    5.7210   -0.8297 C.3     1  LIG11      -0.0412
     32 C          -7.9024    0.3729    4.8529 C.3     1  LIG11       0.0069
     33 C          -0.5382    3.3562   -1.8224 C.3     1  LIG11      -0.0343
     34 C          -8.8031    1.4629    5.3818 C.2     1  LIG11       0.1392
     35 C           0.2518    4.6397   -1.5026 C.3     1  LIG11      -0.0470
     36 C          -7.7737    2.7002    7.2819 C.3     1  LIG11      -0.0528
     37 C          -9.3070    3.8697    5.7150 C.3     1  LIG11      -0.0528
     38 C          -0.1291    5.0727    1.5149 C.2     1  LIG11       0.0485
     39 C           0.4529    2.2541   -2.2470 C.3     1  LIG11      -0.0598
     40 C          -1.5035    3.5949   -3.0017 C.3     1  LIG11      -0.0598
     41 C          -7.1667    4.1713    0.4648 C.2     1  LIG11       0.3320
     42 C          -7.8413    3.5902   -0.7152 C.2     1  LIG11       0.0231
     43 C          -7.2260    3.0301   -1.7690 C.2     1  LIG11      -0.0460
     44 C          -7.9723    2.7865   -3.0161 C.ar    1  LIG11      -0.0001
     45 C          -8.5233    1.5494   -3.3990 C.ar    1  LIG11       0.0411
     46 C          -8.2549    3.9267   -3.7961 C.ar    1  LIG11      -0.0113
     47 C          -9.4031    1.4920   -4.4930 C.ar    1  LIG11      -0.0364
     48 C          -9.0900    3.8366   -4.9061 C.ar    1  LIG11       0.1175
     49 C          -9.6753    2.6300   -5.2533 C.ar    1  LIG11      -0.0184
     50 C          -7.0144   -0.1341   -2.4246 C.2     1  LIG11       0.2411
     51 C          -7.1056   -1.5173   -1.9101 C.2     1  LIG11       0.0021
     52 C          -6.8938   -2.5538   -2.7341 C.2     1  LIG11      -0.0344
     53 C          -7.1828   -3.9782   -2.2806 C.2     1  LIG11       0.0647
@<TRIPOS>BOND
     1     1    41    1
     2     1    28    1
     3     2    34    2
     4     3    38   ar
     5     4    38   ar
     6     5    41    2
     7     6    48    1
     8     7    50    2
     9     8    53   ar
    10     9    53   ar
    11    10    45    1
    12    10    50   am
    13    11    16    1
    14    11    12    1
    15    11    26    1
    16    11    13    1
    17    12    14    1
    18    13    20    1
    19    13    17    1
    20    13    28    1
    21    14    15    1
    22    14    24    1
    23    14    29    1
    24    15    19    1
    25    15    23    1
    26    16    19    1
    27    17    18    1
    28    17    27    2
    29    18    30    1
    30    18    22    1
    31    20    25    1
    32    21    27    1
    33    21    12    1
    34    22    31    1
    35    22    25    1
    36    22    38    1
    37    23    34    1
    38    23    37    1
    39    23    36    1
    40    24    32    1
    41    30    33    1
    42    31    35    1
    43    32    34    1
    44    33    35    1
    45    33    40    1
    46    33    39    1
    47    41    42    1
    48    42    43    2
    49    43    44    1
    50    44    46   ar
    51    44    45   ar
    52    45    47   ar
    53    46    48   ar
    54    47    49   ar
    55    48    49   ar
    56    50    51    1
    57    51    52    2
    58    52    53    1
@<TRIPOS>MOLECULE
../ET1/ET1_17-21_50CONFORMERS.pdb
 47 48 0 0 0
SMALL
GASTEIGER

@<TRIPOS>ATOM
      1  N         -4.8850   -0.0880   -1.8400 N.3    17  LEU17      -0.1231
      2  CA        -6.1290   -0.7220   -2.2700 C.3    17  LEU17       0.1693
      3  CB        -6.0450   -2.2240   -1.9800 C.3    17  LEU17       0.0284
      4  CG        -7.2790   -3.0720   -2.2900 C.3    17  LEU17       0.0019
      5  CD1       -7.6320   -2.9190   -3.7420 C.3    17  LEU17       0.0001
      6  CD2       -6.9950   -4.5210   -1.9860 C.3    17  LEU17       0.0001
      7  C         -7.3700   -0.0260   -1.7540 C.2    17  LEU17       0.2592
      8  O         -8.3970    0.0460   -2.4160 O.2    17  LEU17      -0.2718
      9  N         -7.2350    0.5080   -0.5260 N.am   18  ASP18      -0.1960
     10  CA        -8.2590    1.2890    0.1780 C.3    18  ASP18       0.1840
     11  CB        -8.9650    0.3820    1.2000 C.3    18  ASP18       0.1450
     12  CG       -10.2610    1.0350    1.7020 C.2    18  ASP18       0.3671
     13  OD1      -10.4730    1.2090    2.9030 O.co2  18  ASP18      -0.2456
     14  OD2      -11.1470    1.2530    0.8550 O.co2  18  ASP18      -0.2456
     15  C         -7.7020    2.5680    0.7980 C.2    18  ASP18       0.2622
     16  O         -8.4520    3.5520    0.7850 O.2    18  ASP18      -0.2715
     17  N         -6.5770    2.4600    1.5110 N.am   19  ILE19      -0.1963
     18  CA        -6.2160    3.6500    2.4080 C.3    19  ILE19       0.1727
     19  CB        -5.0970    3.3260    3.3970 C.3    19  ILE19       0.0290
     20  CG2       -4.7090    4.5060    4.3340 C.3    19  ILE19       0.0023
     21  CG1       -5.3530    1.9900    4.2150 C.3    19  ILE19       0.0022
     22  CD1       -6.7200    1.9780    4.9740 C.3    19  ILE19       0.0001
     23  C         -5.7170    4.8170    1.5180 C.2    19  ILE19       0.2616
     24  O         -6.0380    5.9740    1.8980 O.2    19  ILE19      -0.2715
     25  N         -4.8040    4.4900    0.5620 N.am   20  ILE20      -0.1963
     26  CA        -4.2090    5.3760   -0.3770 C.3    20  ILE20       0.1727
     27  CB        -2.7260    5.5100   -0.0200 C.3    20  ILE20       0.0290
     28  CG2       -2.5240    6.0620    1.4180 C.3    20  ILE20       0.0023
     29  CG1       -1.9180    4.2010   -0.0440 C.3    20  ILE20       0.0022
     30  CD1       -0.4640    4.2590    0.0730 C.3    20  ILE20       0.0001
     31  C         -4.3620    4.9380   -1.8210 C.2    20  ILE20       0.2617
     32  O         -4.4020    3.8000   -2.1990 O.2    20  ILE20      -0.2715
     33  N         -4.3280    5.9610   -2.6340 N.am   21  TRP21      -0.1941
     34  CA        -4.5790    6.0340   -4.0320 C.3    21  TRP21       0.1982
     35  CB        -5.9960    6.4580   -4.2760 C.3    21  TRP21       0.0394
     36  CG        -7.1020    5.6850   -3.5800 C.3    21  TRP21       0.0475
     37  CD1       -7.5860    5.8870   -2.2840 C.3    21  TRP21       0.1166
     38  NE1       -8.5970    4.9670   -2.1300 N.pl3  21  TRP21      -0.2376
     39  CE2       -8.8270    4.1960   -3.2250 C.ar   21  TRP21       0.0614
     40  CZ2       -9.7120    3.1020   -3.3810 C.ar   21  TRP21       0.0158
     41  CH2       -9.6000    2.3640   -4.5630 C.ar   21  TRP21       0.0013
     42  CZ3       -8.7130    2.8140   -5.5460 C.ar   21  TRP21      -0.0002
     43  CE3       -7.8160    3.8360   -5.3890 C.ar   21  TRP21      -0.0030
     44  CD2       -7.8100    4.5550   -4.1150 C.ar   21  TRP21      -0.0059
     45  C         -3.6280    6.9660   -4.7840 C.2    21  TRP21       0.3842
     46  O         -3.1330    6.6150   -5.9110 O.co2  21  TRP21      -0.2437
     47  OXT       -3.2290    7.9480   -4.1900 O.co2  21  TRP21      -0.2437
@<TRIPOS>BOND
     1    40    41   ar
     2    40    39   ar
     3    41    42   ar
     4    39    38    1
     5    39    44   ar
     6    42    43   ar
     7    38    37    1
     8    43    44   ar
     9    44    36    1
    10    37    36    1
    11    36    35    1
    12    47    45   ar
    13     5     4    1
    14    35    34    1
    15    45    34    1
    16    45    46   ar
    17    34    33    1
    18     8     7    2
    19     4     6    1
    20     4     3    1
    21     2     3    1
    22     2     1    1
    23     2     7    1
    24     7     9   am
    25    33    31   am
    26    32    31    2
    27    31    26    1
    28     9    10    1
    29    10    11    1
    30    10    15    1
    31    26    27    1
    32    26    25    1
    33    11    12    1
    34    13    12   ar
    35    27    29    1
    36    27    28    1
    37    29    30    1
    38    16    15    2
    39    15    17   am
    40    12    14   ar
    41    25    23   am
    42    17    18    1
    43    23    24    2
    44    23    18    1
    45    18    19    1
    46    19    21    1
    47    19    20    1
    48    21    22    1
