@<TRIPOS>MOLECULE
../ET1/ET1_17-21_50CONFORMERS_NOBACKBONE.pdb
 26 23 0 0 0
SMALL
GASTEIGER

@<TRIPOS>ATOM
      1  CB        -5.8230   -1.3000   -0.0200 C.3    17  LEU17       0.0000
      2  CG        -7.1210   -2.0520    0.2730 C.3    17  LEU17       0.0000
      3  CD1       -7.3450   -3.3240   -0.5260 C.3    17  LEU17       0.0000
      4  CD2       -7.1050   -2.4320    1.7560 C.3    17  LEU17       0.0000
      5  CB        -9.8100    1.4940   -0.6650 C.3    18  ASP18       0.1258
      6  CG       -10.9800    2.4410   -1.1080 C.2    18  ASP18       0.3654
      7  OD1      -11.1620    2.6260   -2.3450 O.co2  18  ASP18      -0.2456
      8  OD2      -11.6890    3.0500   -0.2610 O.co2  18  ASP18      -0.2456
      9  CB        -6.3810    4.5930    2.3780 C.3    19  ILE19       0.0000
     10  CG2       -5.1090    3.7040    2.3320 C.3    19  ILE19       0.0000
     11  CG1       -5.9960    5.9430    3.0860 C.3    19  ILE19       0.0000
     12  CD1       -5.9900    5.6400    4.6020 C.3    19  ILE19       0.0000
     13  CB        -3.0010    5.5600   -0.9960 C.3    20  ILE20       0.0000
     14  CG2       -3.0220    6.7560   -0.0120 C.3    20  ILE20       0.0000
     15  CG1       -2.3580    4.3220   -0.4780 C.3    20  ILE20       0.0000
     16  CD1       -0.8540    4.5810   -0.0790 C.3    20  ILE20       0.0000
     17  CB        -6.4600    3.3010   -5.4360 C.3    21  TRP21       0.0066
     18  CG        -6.1540    2.0960   -6.3470 C.3    21  TRP21       0.0452
     19  CD1       -6.5110    2.0410   -7.7090 C.3    21  TRP21       0.1165
     20  NE1       -6.2560    0.7800   -8.2410 N.pl3  21  TRP21      -0.2376
     21  CE2       -5.8060   -0.0630   -7.2480 C.ar   21  TRP21       0.0614
     22  CZ2       -5.4890   -1.4340   -7.1970 C.ar   21  TRP21       0.0158
     23  CH2       -4.8030   -2.0280   -6.1140 C.ar   21  TRP21       0.0013
     24  CZ3       -4.5240   -1.2220   -5.0000 C.ar   21  TRP21      -0.0002
     25  CE3       -4.9630    0.1690   -4.9520 C.ar   21  TRP21      -0.0030
     26  CD2       -5.6260    0.7530   -6.0730 C.ar   21  TRP21      -0.0059
@<TRIPOS>BOND
     1    22    23   ar
     2    22    21   ar
     3    23    24   ar
     4    21    20    1
     5    21    26   ar
     6    24    25   ar
     7    20    19    1
     8    25    26   ar
     9    26    18    1
    10    19    18    1
    11    18    17    1
    12     3     2    1
    13     2     4    1
    14     2     1    1
    15     5     6    1
    16     7     6   ar
    17    13    15    1
    18    13    14    1
    19    15    16    1
    20     6     8   ar
    21     9    11    1
    22     9    10    1
    23    11    12    1
@<TRIPOS>MOLECULE
*****
 29 31 0 0 0
SMALL
GASTEIGER

@<TRIPOS>ATOM
      1 BR         -5.2376   -2.8818   -8.9311 Br      1  LIG11      -0.0503
      2 BR          0.2524    1.8649    0.2936 Br      1  LIG11      -0.0472
      3 S          -2.0288    1.9725   -4.5622 S.O2    1  LIG11       0.1079
      4 O          -6.1753   -1.1900   -2.4303 O.3     1  LIG11      -0.4724
      5 O          -1.3850    2.7036   -5.6248 O.2     1  LIG11      -0.1383
      6 O          -1.5463    2.0373   -3.2089 O.2     1  LIG11      -0.1383
      7 O          -4.1628   -2.0242   -0.6151 O.3     1  LIG11      -0.4590
      8 N          -1.9845    0.3728   -4.9960 N.3     1  LIG11      -0.1906
      9 N          -3.6617    2.3213   -4.6158 N.pl3   1  LIG11      -0.1891
     10 N          -4.5737    2.5658   -2.5563 N.ar    1  LIG11      -0.2186
     11 N          -5.8240    0.8872   -1.4446 N.ar    1  LIG11      -0.2008
     12 N          -2.2061   -1.0538   -1.3195 N.ar    1  LIG11      -0.2022
     13 N          -3.1607   -0.4164    0.7791 N.ar    1  LIG11      -0.2022
     14 C          -5.0331    0.4607   -3.7033 C.ar    1  LIG11       0.0848
     15 C          -4.4661    1.7293   -3.6037 C.ar    1  LIG11       0.1532
     16 C          -5.0461   -0.3527   -4.9473 C.ar    1  LIG11      -0.0094
     17 C          -5.6679    0.0878   -2.5201 C.ar    1  LIG11       0.2276
     18 C          -5.2976    0.2495   -6.1986 C.ar    1  LIG11      -0.0527
     19 C          -4.8431   -1.7460   -4.9440 C.ar    1  LIG11      -0.0527
     20 C          -6.5206   -1.6724   -1.1258 C.3     1  LIG11       0.1252
     21 C          -5.3388   -0.4936   -7.3834 C.ar    1  LIG11      -0.0472
     22 C          -4.9087   -2.5003   -6.1237 C.ar    1  LIG11      -0.0472
     23 C          -5.2623    2.0941   -1.5187 C.ar    1  LIG11       0.1219
     24 C          -5.4148   -1.6175   -0.0600 C.3     1  LIG11       0.1267
     25 C          -5.1527   -1.8689   -7.3384 C.ar    1  LIG11       0.0179
     26 C          -3.1511   -1.1222   -0.3673 C.ar    1  LIG11       0.3180
     27 C          -1.2069   -0.1716   -1.0857 C.ar    1  LIG11       0.0483
     28 C          -2.1499    0.4646    0.9417 C.ar    1  LIG11       0.0483
     29 C          -1.1359    0.6299    0.0301 C.ar    1  LIG11       0.0543
@<TRIPOS>BOND
     1     1    25    1
     2     2    29    1
     3     3     9    1
     4     3     8    1
     5     3     6    2
     6     3     5    2
     7     4    17    1
     8     4    20    1
     9     7    24    1
    10     7    26    1
    11     9    15    1
    12    10    15   ar
    13    10    23   ar
    14    11    17   ar
    15    11    23   ar
    16    12    26   ar
    17    12    27   ar
    18    13    26   ar
    19    13    28   ar
    20    14    15   ar
    21    14    17   ar
    22    16    18   ar
    23    16    19   ar
    24    16    14    1
    25    18    21   ar
    26    19    22   ar
    27    20    24    1
    28    21    25   ar
    29    22    25   ar
    30    27    29   ar
    31    28    29   ar
@<TRIPOS>MOLECULE
../ET1/ET1_17-21_50CONFORMERS.pdb
 47 48 0 0 0
SMALL
GASTEIGER

@<TRIPOS>ATOM
      1  N         -4.4720    0.1410   -1.4080 N.3    17  LEU17      -0.1231
      2  CA        -5.6790   -0.6380   -1.3690 C.3    17  LEU17       0.1693
      3  CB        -5.8230   -1.3000   -0.0200 C.3    17  LEU17       0.0284
      4  CG        -7.1210   -2.0520    0.2730 C.3    17  LEU17       0.0019
      5  CD1       -7.3450   -3.3240   -0.5260 C.3    17  LEU17       0.0001
      6  CD2       -7.1050   -2.4320    1.7560 C.3    17  LEU17       0.0001
      7  C         -6.8980    0.2070   -1.7660 C.2    17  LEU17       0.2592
      8  O         -7.5610   -0.0070   -2.7650 O.2    17  LEU17      -0.2718
      9  N         -7.3770    1.1650   -0.9800 N.am   18  ASP18      -0.1960
     10  CA        -8.4900    2.0500   -1.2600 C.3    18  ASP18       0.1840
     11  CB        -9.8100    1.4940   -0.6650 C.3    18  ASP18       0.1450
     12  CG       -10.9800    2.4410   -1.1080 C.2    18  ASP18       0.3671
     13  OD1      -11.1620    2.6260   -2.3450 O.co2  18  ASP18      -0.2456
     14  OD2      -11.6890    3.0500   -0.2610 O.co2  18  ASP18      -0.2456
     15  C         -8.1570    3.4170   -0.7330 C.2    18  ASP18       0.2622
     16  O         -8.3600    4.4270   -1.4500 O.2    18  ASP18      -0.2715
     17  N         -7.5900    3.5370    0.4990 N.am   19  ILE19      -0.1963
     18  CA        -7.2060    4.8060    1.0980 C.3    19  ILE19       0.1727
     19  CB        -6.3810    4.5930    2.3780 C.3    19  ILE19       0.0290
     20  CG2       -5.1090    3.7040    2.3320 C.3    19  ILE19       0.0023
     21  CG1       -5.9960    5.9430    3.0860 C.3    19  ILE19       0.0022
     22  CD1       -5.9900    5.6400    4.6020 C.3    19  ILE19       0.0001
     23  C         -6.3560    5.5680    0.0420 C.2    19  ILE19       0.2616
     24  O         -6.4380    6.7870   -0.0320 O.2    19  ILE19      -0.2715
     25  N         -5.4290    4.8700   -0.5810 N.am   20  ILE20      -0.1963
     26  CA        -4.4440    5.3370   -1.5350 C.3    20  ILE20       0.1727
     27  CB        -3.0010    5.5600   -0.9960 C.3    20  ILE20       0.0290
     28  CG2       -3.0220    6.7560   -0.0120 C.3    20  ILE20       0.0023
     29  CG1       -2.3580    4.3220   -0.4780 C.3    20  ILE20       0.0022
     30  CD1       -0.8540    4.5810   -0.0790 C.3    20  ILE20       0.0001
     31  C         -4.5130    4.3060   -2.7300 C.2    20  ILE20       0.2617
     32  O         -4.1930    3.1280   -2.6370 O.2    20  ILE20      -0.2715
     33  N         -4.9570    4.7520   -3.9100 N.am   21  TRP21      -0.1941
     34  CA        -5.0770    3.9470   -5.1760 C.3    21  TRP21       0.1982
     35  CB        -6.4600    3.3010   -5.4360 C.3    21  TRP21       0.0394
     36  CG        -6.1540    2.0960   -6.3470 C.3    21  TRP21       0.0475
     37  CD1       -6.5110    2.0410   -7.7090 C.3    21  TRP21       0.1166
     38  NE1       -6.2560    0.7800   -8.2410 N.pl3  21  TRP21      -0.2376
     39  CE2       -5.8060   -0.0630   -7.2480 C.ar   21  TRP21       0.0614
     40  CZ2       -5.4890   -1.4340   -7.1970 C.ar   21  TRP21       0.0158
     41  CH2       -4.8030   -2.0280   -6.1140 C.ar   21  TRP21       0.0013
     42  CZ3       -4.5240   -1.2220   -5.0000 C.ar   21  TRP21      -0.0002
     43  CE3       -4.9630    0.1690   -4.9520 C.ar   21  TRP21      -0.0030
     44  CD2       -5.6260    0.7530   -6.0730 C.ar   21  TRP21      -0.0059
     45  C         -4.6800    4.8700   -6.3890 C.2    21  TRP21       0.3842
     46  O         -5.3780    5.8440   -6.6380 O.co2  21  TRP21      -0.2437
     47  OXT       -3.6890    4.5570   -7.0760 O.co2  21  TRP21      -0.2437
@<TRIPOS>BOND
     1    40    41   ar
     2    40    39   ar
     3    41    42   ar
     4    39    38    1
     5    39    44   ar
     6    42    43   ar
     7    38    37    1
     8    43    44   ar
     9    44    36    1
    10    37    36    1
    11    36    35    1
    12    47    45   ar
    13     5     4    1
    14    35    34    1
    15    45    34    1
    16    45    46   ar
    17    34    33    1
    18     8     7    2
    19     4     6    1
    20     4     3    1
    21     2     3    1
    22     2     1    1
    23     2     7    1
    24     7     9   am
    25    33    31   am
    26    32    31    2
    27    31    26    1
    28     9    10    1
    29    10    11    1
    30    10    15    1
    31    26    27    1
    32    26    25    1
    33    11    12    1
    34    13    12   ar
    35    27    29    1
    36    27    28    1
    37    29    30    1
    38    16    15    2
    39    15    17   am
    40    12    14   ar
    41    25    23   am
    42    17    18    1
    43    23    24    2
    44    23    18    1
    45    18    19    1
    46    19    21    1
    47    19    20    1
    48    21    22    1
