@<TRIPOS>MOLECULE
../ET1/ET1_17-21_50CONFORMERS_NOBACKBONE.pdb
 26 23 0 0 0
SMALL
GASTEIGER

@<TRIPOS>ATOM
      1  CB        -6.0450   -2.2240   -1.9800 C.3    17  LEU17       0.0000
      2  CG        -7.2790   -3.0720   -2.2900 C.3    17  LEU17       0.0000
      3  CD1       -7.6320   -2.9190   -3.7420 C.3    17  LEU17       0.0000
      4  CD2       -6.9950   -4.5210   -1.9860 C.3    17  LEU17       0.0000
      5  CB        -8.9650    0.3820    1.2000 C.3    18  ASP18       0.1258
      6  CG       -10.2610    1.0350    1.7020 C.2    18  ASP18       0.3654
      7  OD1      -10.4730    1.2090    2.9030 O.co2  18  ASP18      -0.2456
      8  OD2      -11.1470    1.2530    0.8550 O.co2  18  ASP18      -0.2456
      9  CB        -5.0970    3.3260    3.3970 C.3    19  ILE19       0.0000
     10  CG2       -4.7090    4.5060    4.3340 C.3    19  ILE19       0.0000
     11  CG1       -5.3530    1.9900    4.2150 C.3    19  ILE19       0.0000
     12  CD1       -6.7200    1.9780    4.9740 C.3    19  ILE19       0.0000
     13  CB        -2.7260    5.5100   -0.0200 C.3    20  ILE20       0.0000
     14  CG2       -2.5240    6.0620    1.4180 C.3    20  ILE20       0.0000
     15  CG1       -1.9180    4.2010   -0.0440 C.3    20  ILE20       0.0000
     16  CD1       -0.4640    4.2590    0.0730 C.3    20  ILE20       0.0000
     17  CB        -5.9960    6.4580   -4.2760 C.3    21  TRP21       0.0066
     18  CG        -7.1020    5.6850   -3.5800 C.3    21  TRP21       0.0452
     19  CD1       -7.5860    5.8870   -2.2840 C.3    21  TRP21       0.1165
     20  NE1       -8.5970    4.9670   -2.1300 N.pl3  21  TRP21      -0.2376
     21  CE2       -8.8270    4.1960   -3.2250 C.ar   21  TRP21       0.0614
     22  CZ2       -9.7120    3.1020   -3.3810 C.ar   21  TRP21       0.0158
     23  CH2       -9.6000    2.3640   -4.5630 C.ar   21  TRP21       0.0013
     24  CZ3       -8.7130    2.8140   -5.5460 C.ar   21  TRP21      -0.0002
     25  CE3       -7.8160    3.8360   -5.3890 C.ar   21  TRP21      -0.0030
     26  CD2       -7.8100    4.5550   -4.1150 C.ar   21  TRP21      -0.0059
@<TRIPOS>BOND
     1    22    23   ar
     2    22    21   ar
     3    23    24   ar
     4    21    20    1
     5    21    26   ar
     6    24    25   ar
     7    20    19    1
     8    25    26   ar
     9    26    18    1
    10    19    18    1
    11    18    17    1
    12     3     2    1
    13     2     4    1
    14     2     1    1
    15     5     6    1
    16     7     6   ar
    17    13    15    1
    18    13    14    1
    19    15    16    1
    20     6     8   ar
    21     9    11    1
    22     9    10    1
    23    11    12    1
@<TRIPOS>MOLECULE
123882
 66 71 0 0 0
SMALL
GASTEIGER

@<TRIPOS>ATOM
      1 S          -4.9925    1.8601   -6.3825 S.2     3  UNK33      -0.0993
      2 O          -4.7331    4.7861    4.0461 O.2     1  UNK11      -0.2755
      3 O          -9.2616   -2.4304   -1.9625 O.2     4  LEU44      -0.2738
      4 O          -6.1646    4.2030    1.0839 O.2     1  UNK11      -0.2737
      5 O          -8.1913    1.1459   -0.5550 O.2     5  TRP55      -0.2738
      6 O          -9.0966    2.7787    2.1881 O.2     6  ASP66      -0.2738
      7 O          -6.7164    0.1816   -4.8206 O.2     3  UNK33      -0.2734
      8 O          -5.2306    0.5715   -0.7541 O.2     2  ASP22      -0.2737
      9 OD1       -11.3439   -1.5583    1.8669 O.co2   6  ASP66      -0.5497
     10 OD2       -10.3614   -2.3122    3.7916 O.co2   6  ASP66      -0.5497
     11 OD1        -2.1109   -0.0257   -0.5413 O.co2   2  ASP22      -0.5497
     12 OD2        -2.8447    0.4569    1.5801 O.co2   2  ASP22      -0.5497
     13 N          -3.5476    3.4502    5.4637 N.am    1  UNK11      -0.2984
     14 N          -2.3443    3.5929    8.0935 N.pl3   1  UNK11      -0.3269
     15 N          -7.2356    1.5758    2.7911 N.am    1  UNK11      -0.3020
     16 N          -9.0374   -0.2850   -2.6751 N.am    5  TRP55      -0.3022
     17 N          -6.2786   -0.5227   -2.7444 N.am    4  LEU44      -0.3022
     18 N          -9.9928    0.4631    0.6822 N.am    6  ASP66      -0.3021
     19 N          -4.7248    2.4504    1.2964 N.am    2  ASP22      -0.3021
     20 N          -5.0040    2.2354   -2.3145 N.am    3  UNK33      -0.2984
     21 NE1        -9.0843    4.5958   -2.6364 N.ar    5  TRP55      -0.3604
     22 C          -2.6799    4.5756    5.8173 C.3     1  UNK11       0.0304
     23 C          -3.3233    2.2106    6.2201 C.3     1  UNK11       0.0304
     24 C          -1.6864    4.2504    6.9458 C.3     1  UNK11       0.0280
     25 C          -3.2873    2.4954    7.7382 C.3     1  UNK11       0.0280
     26 C          -4.5469    3.6676    4.5243 C.2     1  UNK11       0.2179
     27 C          -5.4063    2.4733    4.1552 C.3     1  UNK11       0.0510
     28 C          -6.4244    2.7747    3.0530 C.3     1  UNK11       0.1076
     29 CA         -7.0514   -1.7681   -2.7878 C.3     4  LEU44       0.0997
     30 CB         -6.3269   -2.7688   -1.8611 C.3     4  LEU44      -0.0236
     31 CA        -10.0760    0.2426   -1.7885 C.3     5  TRP55       0.1034
     32 C          -2.7252    4.3441    9.2103 C.ar    1  UNK11       0.0298
     33 CG         -6.8643   -4.2088   -1.7858 C.3     4  LEU44      -0.0446
     34 CB        -10.8743    1.3824   -2.4274 C.3     5  TRP55       0.0013
     35 C          -8.5293   -1.5370   -2.3834 C.2     4  LEU44       0.2340
     36 CA         -9.1766    0.3435    1.8917 C.3     6  ASP66       0.1045
     37 C          -5.7658    3.2320    1.7272 C.2     1  UNK11       0.2344
     38 CG        -10.0871    2.6096   -2.7940 C.ar    5  TRP55      -0.0201
     39 C          -9.3306    0.6759   -0.5086 C.2     5  TRP55       0.2343
     40 C          -8.5125    1.6984    2.2608 C.2     6  ASP66       0.2343
     41 CA         -4.1286    2.6007   -0.0200 C.3     2  ASP22       0.1045
     42 CD2        -6.8684   -4.9064   -3.1427 C.3     4  LEU44      -0.0626
     43 CD1        -6.0342   -5.0151   -0.7802 C.3     4  LEU44      -0.0626
     44 C          -4.9314    1.4194   -3.5404 C.3     3  UNK33       0.1311
     45 C          -2.9350    3.7009   10.4421 C.ar    1  UNK11      -0.0407
     46 C          -2.9043    5.7345    9.1823 C.ar    1  UNK11      -0.0407
     47 CD2        -9.4365    2.9015   -4.0384 C.ar    5  TRP55       0.0029
     48 C          -6.0971    0.3652   -3.7735 C.2     3  UNK33       0.2390
     49 CB         -9.9879   -0.0931    3.1078 C.3     6  ASP66       0.0138
     50 CD1        -9.8567    3.6904   -1.9652 C.ar    5  TRP55       0.0060
     51 CE2        -8.8527    4.1643   -3.9207 C.ar    5  TRP55       0.0467
     52 C          -4.8726    1.7069   -1.0375 C.2     2  ASP22       0.2345
     53 CB         -2.6576    2.1987    0.0012 C.3     2  ASP22       0.0138
     54 C          -3.2955    4.4111   11.5931 C.ar    1  UNK11      -0.0600
     55 C          -3.2760    6.4511   10.3265 C.ar    1  UNK11      -0.0600
     56 C          -4.6995    2.3615   -4.7511 C.ar    3  UNK33       0.0189
     57 CE3        -9.2757    2.2027   -5.2511 C.ar    5  TRP55      -0.0523
     58 C          -3.4667    5.7894   11.5341 C.ar    1  UNK11      -0.0616
     59 CZ2        -8.1544    4.7800   -4.9669 C.ar    5  TRP55      -0.0378
     60 CG        -10.6123   -1.4607    2.8973 C.2     6  ASP66       0.0440
     61 CZ3        -8.5800    2.8018   -6.3070 C.ar    5  TRP55      -0.0611
     62 C          -4.1081    3.6227   -4.7820 C.ar    3  UNK33      -0.0493
     63 CH2        -8.0448    4.0795   -6.1704 C.ar    5  TRP55      -0.0598
     64 CG         -2.5357    0.7229    0.3841 C.2     2  ASP22       0.0440
     65 C          -4.1512    4.2426   -6.0673 C.ar    3  UNK33      -0.0544
     66 C          -4.6922    3.4100   -7.0148 C.ar    3  UNK33      -0.0240
@<TRIPOS>BOND
     1     1    56   ar
     2     1    66   ar
     3     2    26    2
     4     3    35    2
     5     4    37    2
     6     5    39    2
     7     6    40    2
     8     7    48    2
     9     8    52    2
    10     9    60   ar
    11    10    60   ar
    12    11    64   ar
    13    12    64   ar
    14    13    22    1
    15    13    23    1
    16    14    24    1
    17    14    25    1
    18    14    32    1
    19    15    28    1
    20    15    40   am
    21    16    35   am
    22    16    31    1
    23    17    48   am
    24    17    29    1
    25    18    39   am
    26    18    36    1
    27    19    37   am
    28    19    41    1
    29    20    52   am
    30    20    44    1
    31    21    50   ar
    32    21    51   ar
    33    22    24    1
    34    23    25    1
    35    26    27    1
    36    26    13   am
    37    28    37    1
    38    28    27    1
    39    29    35    1
    40    29    30    1
    41    30    33    1
    42    31    39    1
    43    31    34    1
    44    32    45   ar
    45    32    46   ar
    46    33    43    1
    47    33    42    1
    48    34    38    1
    49    36    40    1
    50    36    49    1
    51    38    47   ar
    52    38    50   ar
    53    41    52    1
    54    41    53    1
    55    44    48    1
    56    44    56    1
    57    45    54   ar
    58    46    55   ar
    59    47    57   ar
    60    47    51   ar
    61    49    60    1
    62    51    59   ar
    63    53    64    1
    64    54    58   ar
    65    55    58   ar
    66    56    62   ar
    67    57    61   ar
    68    59    63   ar
    69    61    63   ar
    70    62    65   ar
    71    65    66   ar
@<TRIPOS>MOLECULE
../ET1/ET1_17-21_50CONFORMERS.pdb
 47 48 0 0 0
SMALL
GASTEIGER

@<TRIPOS>ATOM
      1  N         -4.8850   -0.0880   -1.8400 N.3    17  LEU17      -0.1231
      2  CA        -6.1290   -0.7220   -2.2700 C.3    17  LEU17       0.1693
      3  CB        -6.0450   -2.2240   -1.9800 C.3    17  LEU17       0.0284
      4  CG        -7.2790   -3.0720   -2.2900 C.3    17  LEU17       0.0019
      5  CD1       -7.6320   -2.9190   -3.7420 C.3    17  LEU17       0.0001
      6  CD2       -6.9950   -4.5210   -1.9860 C.3    17  LEU17       0.0001
      7  C         -7.3700   -0.0260   -1.7540 C.2    17  LEU17       0.2592
      8  O         -8.3970    0.0460   -2.4160 O.2    17  LEU17      -0.2718
      9  N         -7.2350    0.5080   -0.5260 N.am   18  ASP18      -0.1960
     10  CA        -8.2590    1.2890    0.1780 C.3    18  ASP18       0.1840
     11  CB        -8.9650    0.3820    1.2000 C.3    18  ASP18       0.1450
     12  CG       -10.2610    1.0350    1.7020 C.2    18  ASP18       0.3671
     13  OD1      -10.4730    1.2090    2.9030 O.co2  18  ASP18      -0.2456
     14  OD2      -11.1470    1.2530    0.8550 O.co2  18  ASP18      -0.2456
     15  C         -7.7020    2.5680    0.7980 C.2    18  ASP18       0.2622
     16  O         -8.4520    3.5520    0.7850 O.2    18  ASP18      -0.2715
     17  N         -6.5770    2.4600    1.5110 N.am   19  ILE19      -0.1963
     18  CA        -6.2160    3.6500    2.4080 C.3    19  ILE19       0.1727
     19  CB        -5.0970    3.3260    3.3970 C.3    19  ILE19       0.0290
     20  CG2       -4.7090    4.5060    4.3340 C.3    19  ILE19       0.0023
     21  CG1       -5.3530    1.9900    4.2150 C.3    19  ILE19       0.0022
     22  CD1       -6.7200    1.9780    4.9740 C.3    19  ILE19       0.0001
     23  C         -5.7170    4.8170    1.5180 C.2    19  ILE19       0.2616
     24  O         -6.0380    5.9740    1.8980 O.2    19  ILE19      -0.2715
     25  N         -4.8040    4.4900    0.5620 N.am   20  ILE20      -0.1963
     26  CA        -4.2090    5.3760   -0.3770 C.3    20  ILE20       0.1727
     27  CB        -2.7260    5.5100   -0.0200 C.3    20  ILE20       0.0290
     28  CG2       -2.5240    6.0620    1.4180 C.3    20  ILE20       0.0023
     29  CG1       -1.9180    4.2010   -0.0440 C.3    20  ILE20       0.0022
     30  CD1       -0.4640    4.2590    0.0730 C.3    20  ILE20       0.0001
     31  C         -4.3620    4.9380   -1.8210 C.2    20  ILE20       0.2617
     32  O         -4.4020    3.8000   -2.1990 O.2    20  ILE20      -0.2715
     33  N         -4.3280    5.9610   -2.6340 N.am   21  TRP21      -0.1941
     34  CA        -4.5790    6.0340   -4.0320 C.3    21  TRP21       0.1982
     35  CB        -5.9960    6.4580   -4.2760 C.3    21  TRP21       0.0394
     36  CG        -7.1020    5.6850   -3.5800 C.3    21  TRP21       0.0475
     37  CD1       -7.5860    5.8870   -2.2840 C.3    21  TRP21       0.1166
     38  NE1       -8.5970    4.9670   -2.1300 N.pl3  21  TRP21      -0.2376
     39  CE2       -8.8270    4.1960   -3.2250 C.ar   21  TRP21       0.0614
     40  CZ2       -9.7120    3.1020   -3.3810 C.ar   21  TRP21       0.0158
     41  CH2       -9.6000    2.3640   -4.5630 C.ar   21  TRP21       0.0013
     42  CZ3       -8.7130    2.8140   -5.5460 C.ar   21  TRP21      -0.0002
     43  CE3       -7.8160    3.8360   -5.3890 C.ar   21  TRP21      -0.0030
     44  CD2       -7.8100    4.5550   -4.1150 C.ar   21  TRP21      -0.0059
     45  C         -3.6280    6.9660   -4.7840 C.2    21  TRP21       0.3842
     46  O         -3.1330    6.6150   -5.9110 O.co2  21  TRP21      -0.2437
     47  OXT       -3.2290    7.9480   -4.1900 O.co2  21  TRP21      -0.2437
@<TRIPOS>BOND
     1    40    41   ar
     2    40    39   ar
     3    41    42   ar
     4    39    38    1
     5    39    44   ar
     6    42    43   ar
     7    38    37    1
     8    43    44   ar
     9    44    36    1
    10    37    36    1
    11    36    35    1
    12    47    45   ar
    13     5     4    1
    14    35    34    1
    15    45    34    1
    16    45    46   ar
    17    34    33    1
    18     8     7    2
    19     4     6    1
    20     4     3    1
    21     2     3    1
    22     2     1    1
    23     2     7    1
    24     7     9   am
    25    33    31   am
    26    32    31    2
    27    31    26    1
    28     9    10    1
    29    10    11    1
    30    10    15    1
    31    26    27    1
    32    26    25    1
    33    11    12    1
    34    13    12   ar
    35    27    29    1
    36    27    28    1
    37    29    30    1
    38    16    15    2
    39    15    17   am
    40    12    14   ar
    41    25    23   am
    42    17    18    1
    43    23    24    2
    44    23    18    1
    45    18    19    1
    46    19    21    1
    47    19    20    1
    48    21    22    1
