@<TRIPOS>MOLECULE
../ET1/ET1_17-21_50CONFORMERS_NOBACKBONE.pdb
 26 23 0 0 0
SMALL
GASTEIGER

@<TRIPOS>ATOM
      1  CB        -6.1790   -1.2220   -0.4480 C.3    17  LEU17       0.0000
      2  CG        -7.2710   -2.2600   -0.6260 C.3    17  LEU17       0.0000
      3  CD1       -7.0390   -3.3820   -1.7660 C.3    17  LEU17       0.0000
      4  CD2       -7.5630   -2.8400    0.7060 C.3    17  LEU17       0.0000
      5  CB        -9.2830    1.6460   -1.8020 C.3    18  ASP18       0.1258
      6  CG       -10.5370    2.4520   -2.2150 C.2    18  ASP18       0.3654
      7  OD1      -11.1140    2.0050   -3.2510 O.co2  18  ASP18      -0.2456
      8  OD2      -10.9560    3.4170   -1.5210 O.co2  18  ASP18      -0.2456
      9  CB        -7.4840    5.3020    1.2320 C.3    19  ILE19       0.0000
     10  CG2       -6.9460    6.6770    1.8040 C.3    19  ILE19       0.0000
     11  CG1       -8.9970    5.0190    1.4390 C.3    19  ILE19       0.0000
     12  CD1       -9.6510    5.0260    2.8000 C.3    19  ILE19       0.0000
     13  CB        -2.1940    4.4390   -0.1210 C.3    20  ILE20       0.0000
     14  CG2       -0.8360    4.4230   -0.8410 C.3    20  ILE20       0.0000
     15  CG1       -2.0260    5.1680    1.2250 C.3    20  ILE20       0.0000
     16  CD1       -3.0830    4.8000    2.2720 C.3    20  ILE20       0.0000
     17  CB        -4.9890    4.5460   -5.3170 C.3    21  TRP21       0.0066
     18  CG        -5.3170    4.0380   -6.7550 C.3    21  TRP21       0.0452
     19  CD1       -5.2500    4.7270   -7.9210 C.3    21  TRP21       0.1165
     20  NE1       -5.5580    3.8940   -8.9880 N.pl3  21  TRP21      -0.2376
     21  CE2       -5.8900    2.6280   -8.5770 C.ar   21  TRP21       0.0614
     22  CZ2       -6.3820    1.5100   -9.2020 C.ar   21  TRP21       0.0158
     23  CH2       -6.8100    0.4000   -8.5950 C.ar   21  TRP21       0.0013
     24  CZ3       -6.8190    0.4660   -7.1640 C.ar   21  TRP21      -0.0002
     25  CE3       -6.3210    1.6010   -6.4690 C.ar   21  TRP21      -0.0030
     26  CD2       -5.8180    2.6990   -7.1070 C.ar   21  TRP21      -0.0059
@<TRIPOS>BOND
     1    22    23   ar
     2    22    21   ar
     3    23    24   ar
     4    21    20    1
     5    21    26   ar
     6    24    25   ar
     7    20    19    1
     8    25    26   ar
     9    26    18    1
    10    19    18    1
    11    18    17    1
    12     3     2    1
    13     2     4    1
    14     2     1    1
    15     5     6    1
    16     7     6   ar
    17    13    15    1
    18    13    14    1
    19    15    16    1
    20     6     8   ar
    21     9    11    1
    22     9    10    1
    23    11    12    1
@<TRIPOS>MOLECULE
108002
 38 42 0 0 0
SMALL
GASTEIGER

@<TRIPOS>ATOM
      1 O          -4.8959    6.2494   -7.1367 O.co2   1  LIG11      -0.5495
      2 O          -7.0952    5.7219   -7.3280 O.co2   1  LIG11      -0.5495
      3 O          -1.4168    2.7792   -1.9267 O.3     1  LIG11      -0.4920
      4 O          -6.6005    3.1076   -2.9181 O.3     1  LIG11      -0.4858
      5 O          -7.0396   -1.0610   -6.2405 O.3     1  LIG11      -0.4526
      6 O          -7.7182   -0.9319   -8.5512 O.3     1  LIG11      -0.4526
      7 O          -8.3947    6.6944   -0.1578 O.3     1  LIG11      -0.4950
      8 O          -7.6148    1.7400   -0.6354 O.co2   1  LIG11      -0.5463
      9 O          -8.5866    0.2759   -2.0791 O.co2   1  LIG11      -0.5463
     10 C          -5.7813    4.4933   -5.7866 C.3     1  LIG11       0.0203
     11 C          -5.0880    5.0634   -4.5313 C.3     1  LIG11       0.0218
     12 C          -4.8365    3.4260   -6.3947 C.3     1  LIG11       0.0184
     13 C          -4.0315    4.0314   -4.2183 C.ar    1  LIG11      -0.0320
     14 C          -3.8927    3.1097   -5.2542 C.ar    1  LIG11      -0.0353
     15 C          -5.6045    2.2467   -6.9782 C.ar    1  LIG11      -0.0356
     16 C          -6.0272    5.3955   -3.3752 C.ar    1  LIG11       0.0026
     17 C          -5.9357    5.5945   -6.8372 C.2     1  LIG11       0.0466
     18 C          -3.2173    3.9772   -3.0916 C.ar    1  LIG11      -0.0159
     19 C          -2.9392    2.1035   -5.1712 C.ar    1  LIG11      -0.0542
     20 C          -2.2647    2.9631   -2.9894 C.ar    1  LIG11       0.1208
     21 C          -6.7467    4.4431   -2.6304 C.ar    1  LIG11       0.1283
     22 C          -5.9559    1.1211   -6.2130 C.ar    1  LIG11      -0.0124
     23 C          -6.0190    2.3121   -8.3320 C.ar    1  LIG11      -0.0543
     24 C          -2.1434    2.0211   -4.0229 C.ar    1  LIG11      -0.0196
     25 C          -6.1674    6.7533   -3.0246 C.ar    1  LIG11      -0.0510
     26 C          -6.6530    0.1029   -6.8281 C.ar    1  LIG11       0.1665
     27 C          -6.7349    1.2688   -8.9275 C.ar    1  LIG11      -0.0159
     28 C          -7.5268    4.8512   -1.5366 C.ar    1  LIG11       0.0221
     29 C          -6.9674    7.1471   -1.9493 C.ar    1  LIG11      -0.0194
     30 C          -7.0329    0.1734   -8.1477 C.ar    1  LIG11       0.1662
     31 C          -7.6519    6.1975   -1.1983 C.ar    1  LIG11       0.1236
     32 C          -1.1611    3.9239   -1.1103 C.3     1  LIG11       0.0893
     33 C          -7.7834   -1.6659   -7.3093 C.3     1  LIG11       0.2332
     34 C          -7.8370    2.3543   -2.9601 C.3     1  LIG11       0.1287
     35 C          -2.0875    3.9670    0.1036 C.3     1  LIG11      -0.0215
     36 C          -7.9938    1.3607   -1.7827 C.2     1  LIG11       0.0789
     37 C          -9.2227    5.7484    0.5125 C.3     1  LIG11       0.0788
     38 C          -1.8611    5.2271    0.9226 C.3     1  LIG11      -0.0622
@<TRIPOS>BOND
     1     1    17   ar
     2     2    17   ar
     3     3    20    1
     4     3    32    1
     5     4    21    1
     6     4    34    1
     7     5    26    1
     8     5    33    1
     9     6    30    1
    10     6    33    1
    11     7    31    1
    12     7    37    1
    13     8    36   ar
    14     9    36   ar
    15    10    11    1
    16    10    12    1
    17    10    17    1
    18    11    13    1
    19    11    16    1
    20    12    14    1
    21    12    15    1
    22    13    14   ar
    23    13    18   ar
    24    14    19   ar
    25    15    22   ar
    26    15    23   ar
    27    16    21   ar
    28    16    25   ar
    29    18    20   ar
    30    19    24   ar
    31    20    24   ar
    32    21    28   ar
    33    22    26   ar
    34    23    27   ar
    35    25    29   ar
    36    26    30   ar
    37    27    30   ar
    38    28    31   ar
    39    29    31   ar
    40    32    35    1
    41    34    36    1
    42    35    38    1
@<TRIPOS>MOLECULE
../ET1/ET1_17-21_50CONFORMERS.pdb
 47 48 0 0 0
SMALL
GASTEIGER

@<TRIPOS>ATOM
      1  N         -4.4410    0.2010   -1.3300 N.3    17  LEU17      -0.1231
      2  CA        -5.5650   -0.6370   -1.7110 C.3    17  LEU17       0.1693
      3  CB        -6.1790   -1.2220   -0.4480 C.3    17  LEU17       0.0284
      4  CG        -7.2710   -2.2600   -0.6260 C.3    17  LEU17       0.0019
      5  CD1       -7.0390   -3.3820   -1.7660 C.3    17  LEU17       0.0001
      6  CD2       -7.5630   -2.8400    0.7060 C.3    17  LEU17       0.0001
      7  C         -6.4970    0.2350   -2.5900 C.2    17  LEU17       0.2592
      8  O         -6.8530   -0.0600   -3.7650 O.2    17  LEU17      -0.2718
      9  N         -6.9540    1.3410   -2.0600 N.am   18  ASP18      -0.1960
     10  CA        -8.0640    2.1930   -2.4620 C.3    18  ASP18       0.1840
     11  CB        -9.2830    1.6460   -1.8020 C.3    18  ASP18       0.1450
     12  CG       -10.5370    2.4520   -2.2150 C.2    18  ASP18       0.3671
     13  OD1      -11.1140    2.0050   -3.2510 O.co2  18  ASP18      -0.2456
     14  OD2      -10.9560    3.4170   -1.5210 O.co2  18  ASP18      -0.2456
     15  C         -7.9070    3.6610   -2.1470 C.2    18  ASP18       0.2622
     16  O         -8.2070    4.6000   -2.9010 O.2    18  ASP18      -0.2715
     17  N         -7.5000    3.8940   -0.8870 N.am   19  ILE19      -0.1963
     18  CA        -7.1370    5.2190   -0.2970 C.3    19  ILE19       0.1727
     19  CB        -7.4840    5.3020    1.2320 C.3    19  ILE19       0.0290
     20  CG2       -6.9460    6.6770    1.8040 C.3    19  ILE19       0.0023
     21  CG1       -8.9970    5.0190    1.4390 C.3    19  ILE19       0.0022
     22  CD1       -9.6510    5.0260    2.8000 C.3    19  ILE19       0.0001
     23  C         -5.7050    5.6160   -0.7450 C.2    19  ILE19       0.2616
     24  O         -5.5450    6.6670   -1.4030 O.2    19  ILE19      -0.2715
     25  N         -4.6630    4.8680   -0.3900 N.am   20  ILE20      -0.1963
     26  CA        -3.3280    4.9590   -1.0090 C.3    20  ILE20       0.1727
     27  CB        -2.1940    4.4390   -0.1210 C.3    20  ILE20       0.0290
     28  CG2       -0.8360    4.4230   -0.8410 C.3    20  ILE20       0.0023
     29  CG1       -2.0260    5.1680    1.2250 C.3    20  ILE20       0.0022
     30  CD1       -3.0830    4.8000    2.2720 C.3    20  ILE20       0.0001
     31  C         -3.4160    4.2400   -2.3320 C.2    20  ILE20       0.2617
     32  O         -3.5130    3.0230   -2.3730 O.2    20  ILE20      -0.2715
     33  N         -3.2910    4.9330   -3.5120 N.am   21  TRP21      -0.1941
     34  CA        -3.5400    4.5000   -4.9110 C.3    21  TRP21       0.1982
     35  CB        -4.9890    4.5460   -5.3170 C.3    21  TRP21       0.0394
     36  CG        -5.3170    4.0380   -6.7550 C.3    21  TRP21       0.0475
     37  CD1       -5.2500    4.7270   -7.9210 C.3    21  TRP21       0.1166
     38  NE1       -5.5580    3.8940   -8.9880 N.pl3  21  TRP21      -0.2376
     39  CE2       -5.8900    2.6280   -8.5770 C.ar   21  TRP21       0.0614
     40  CZ2       -6.3820    1.5100   -9.2020 C.ar   21  TRP21       0.0158
     41  CH2       -6.8100    0.4000   -8.5950 C.ar   21  TRP21       0.0013
     42  CZ3       -6.8190    0.4660   -7.1640 C.ar   21  TRP21      -0.0002
     43  CE3       -6.3210    1.6010   -6.4690 C.ar   21  TRP21      -0.0030
     44  CD2       -5.8180    2.6990   -7.1070 C.ar   21  TRP21      -0.0059
     45  C         -2.6350    5.2710   -5.8620 C.2    21  TRP21       0.3842
     46  O         -2.0630    4.6330   -6.7090 O.co2  21  TRP21      -0.2437
     47  OXT       -2.4590    6.4990   -5.7050 O.co2  21  TRP21      -0.2437
@<TRIPOS>BOND
     1    40    41   ar
     2    40    39   ar
     3    41    42   ar
     4    39    38    1
     5    39    44   ar
     6    42    43   ar
     7    38    37    1
     8    43    44   ar
     9    44    36    1
    10    37    36    1
    11    36    35    1
    12    47    45   ar
    13     5     4    1
    14    35    34    1
    15    45    34    1
    16    45    46   ar
    17    34    33    1
    18     8     7    2
    19     4     6    1
    20     4     3    1
    21     2     3    1
    22     2     1    1
    23     2     7    1
    24     7     9   am
    25    33    31   am
    26    32    31    2
    27    31    26    1
    28     9    10    1
    29    10    11    1
    30    10    15    1
    31    26    27    1
    32    26    25    1
    33    11    12    1
    34    13    12   ar
    35    27    29    1
    36    27    28    1
    37    29    30    1
    38    16    15    2
    39    15    17   am
    40    12    14   ar
    41    25    23   am
    42    17    18    1
    43    23    24    2
    44    23    18    1
    45    18    19    1
    46    19    21    1
    47    19    20    1
    48    21    22    1
