@<TRIPOS>MOLECULE
../ET1/ET1_17-21_50CONFORMERS_NOBACKBONE.pdb
 26 23 0 0 0
SMALL
GASTEIGER

@<TRIPOS>ATOM
      1  CB        -6.5650   -1.4580   -0.3110 C.3    17  LEU17       0.0000
      2  CG        -7.7460   -2.4340   -0.5060 C.3    17  LEU17       0.0000
      3  CD1       -7.8580   -3.0370   -1.9450 C.3    17  LEU17       0.0000
      4  CD2       -7.5480   -3.6660    0.4700 C.3    17  LEU17       0.0000
      5  CB        -9.1830    2.2270    1.2540 C.3    18  ASP18       0.1258
      6  CG       -10.1190    3.2280    1.8640 C.2    18  ASP18       0.3654
      7  OD1      -11.1530    3.6680    1.3060 O.co2  18  ASP18      -0.2456
      8  OD2       -9.7570    3.7260    2.9640 O.co2  18  ASP18      -0.2456
      9  CB        -5.0730    4.9940    2.8050 C.3    19  ILE19       0.0000
     10  CG2       -4.3720    6.2200    3.3260 C.3    19  ILE19       0.0000
     11  CG1       -5.9700    4.4790    3.9280 C.3    19  ILE19       0.0000
     12  CD1       -5.1800    3.8570    5.1220 C.3    19  ILE19       0.0000
     13  CB        -2.1460    4.3850   -1.3300 C.3    20  ILE20       0.0000
     14  CG2       -1.2570    4.4980   -2.6400 C.3    20  ILE20       0.0000
     15  CG1       -1.4410    5.1330   -0.1760 C.3    20  ILE20       0.0000
     16  CD1        0.0370    4.7250    0.0590 C.3    20  ILE20       0.0000
     17  CB        -7.2260    3.9060   -3.9570 C.3    21  TRP21       0.0066
     18  CG        -8.0780    3.1360   -4.9220 C.3    21  TRP21       0.0452
     19  CD1       -9.0450    3.6780   -5.6240 C.3    21  TRP21       0.1165
     20  NE1       -9.5590    2.7360   -6.4910 N.pl3  21  TRP21      -0.2376
     21  CE2       -8.9590    1.4790   -6.3190 C.ar   21  TRP21       0.0614
     22  CZ2       -9.1040    0.2160   -6.8210 C.ar   21  TRP21       0.0158
     23  CH2       -8.4150   -0.9370   -6.3400 C.ar   21  TRP21       0.0013
     24  CZ3       -7.4180   -0.6890   -5.3420 C.ar   21  TRP21      -0.0002
     25  CE3       -7.2370    0.6130   -4.8350 C.ar   21  TRP21      -0.0030
     26  CD2       -8.0160    1.7350   -5.2970 C.ar   21  TRP21      -0.0059
@<TRIPOS>BOND
     1    22    23   ar
     2    22    21   ar
     3    23    24   ar
     4    21    20    1
     5    21    26   ar
     6    24    25   ar
     7    20    19    1
     8    25    26   ar
     9    26    18    1
    10    19    18    1
    11    18    17    1
    12     3     2    1
    13     2     4    1
    14     2     1    1
    15     5     6    1
    16     7     6   ar
    17    13    15    1
    18    13    14    1
    19    15    16    1
    20     6     8   ar
    21     9    11    1
    22     9    10    1
    23    11    12    1
@<TRIPOS>MOLECULE
178103
 37 41 0 0 0
SMALL
GASTEIGER

@<TRIPOS>ATOM
      1 O          -9.8568    4.0331   -2.8978 O.co2   1  LIG11      -0.5495
      2 O          -8.9318    5.0130   -4.7309 O.co2   1  LIG11      -0.5495
      3 O          -1.7795    3.2917   -3.8782 O.3     1  LIG11      -0.4920
      4 O          -6.1432    1.3844   -1.7332 O.3     1  LIG11      -0.4893
      5 O          -9.9163    0.1107   -8.3764 O.3     1  LIG11      -0.4526
      6 O          -9.4141   -1.9809   -7.2813 O.3     1  LIG11      -0.4526
      7 O          -6.3676    3.2012    2.6793 O.3     1  LIG11      -0.4950
      8 O          -4.3976   -0.5691   -2.8197 O.3     1  LIG11      -0.3917
      9 C          -7.8374    3.1534   -3.7334 C.3     1  LIG11       0.0203
     10 C          -6.7136    3.9021   -2.9780 C.3     1  LIG11       0.0218
     11 C          -7.2753    2.7785   -5.1250 C.3     1  LIG11       0.0184
     12 C          -5.4646    3.4444   -3.7026 C.ar    1  LIG11      -0.0320
     13 C          -5.7795    2.7804   -4.8881 C.ar    1  LIG11      -0.0353
     14 C          -6.6785    3.6639   -1.4683 C.ar    1  LIG11       0.0025
     15 C          -7.8292    1.4674   -5.6621 C.ar    1  LIG11      -0.0356
     16 C          -8.9849    4.1548   -3.8053 C.2     1  LIG11       0.0466
     17 C          -4.1425    3.6574   -3.3257 C.ar    1  LIG11      -0.0159
     18 C          -4.7711    2.2919   -5.7067 C.ar    1  LIG11      -0.0542
     19 C          -6.3646    2.4238   -0.8753 C.ar    1  LIG11       0.1278
     20 C          -3.1198    3.1703   -4.1397 C.ar    1  LIG11       0.1208
     21 C          -8.6474    1.4794   -6.8056 C.ar    1  LIG11      -0.0124
     22 C          -3.4402    2.4718   -5.3146 C.ar    1  LIG11      -0.0196
     23 C          -7.5467    0.2309   -5.0342 C.ar    1  LIG11      -0.0543
     24 C          -6.9554    4.7593   -0.6308 C.ar    1  LIG11      -0.0510
     25 C          -9.1294    0.2769   -7.2787 C.ar    1  LIG11       0.1665
     26 C          -8.0539   -0.9728   -5.5301 C.ar    1  LIG11      -0.0159
     27 C          -6.2497    2.3364    0.5173 C.ar    1  LIG11       0.0221
     28 C          -6.8762    4.6495    0.7592 C.ar    1  LIG11      -0.0194
     29 C          -8.8408   -0.9161   -6.6563 C.ar    1  LIG11       0.1662
     30 C          -6.5105    3.4392    1.3377 C.ar    1  LIG11       0.1236
     31 C          -1.3869    4.3795   -3.0377 C.3     1  LIG11       0.0893
     32 C         -10.1113   -1.3160   -8.3533 C.3     1  LIG11       0.2332
     33 C          -6.1518    0.0381   -1.2604 C.3     1  LIG11       0.1126
     34 C          -1.2004    3.9093   -1.5971 C.3     1  LIG11      -0.0215
     35 C          -4.7477   -0.5280   -1.4367 C.3     1  LIG11       0.0783
     36 C          -6.7317    4.2614    3.5538 C.3     1  LIG11       0.0788
     37 C          -0.8756    5.0685   -0.6712 C.3     1  LIG11      -0.0622
@<TRIPOS>BOND
     1     1    16   ar
     2     2    16   ar
     3     3    20    1
     4     3    31    1
     5     4    19    1
     6     4    33    1
     7     5    25    1
     8     5    32    1
     9     6    29    1
    10     6    32    1
    11     7    30    1
    12     7    36    1
    13     8    35    1
    14     9    10    1
    15     9    11    1
    16     9    16    1
    17    10    12    1
    18    10    14    1
    19    11    13    1
    20    11    15    1
    21    12    13   ar
    22    12    17   ar
    23    13    18   ar
    24    14    19   ar
    25    14    24   ar
    26    15    21   ar
    27    15    23   ar
    28    17    20   ar
    29    18    22   ar
    30    19    27   ar
    31    20    22   ar
    32    21    25   ar
    33    23    26   ar
    34    24    28   ar
    35    25    29   ar
    36    26    29   ar
    37    27    30   ar
    38    28    30   ar
    39    31    34    1
    40    33    35    1
    41    34    37    1
@<TRIPOS>MOLECULE
../ET1/ET1_17-21_50CONFORMERS.pdb
 47 48 0 0 0
SMALL
GASTEIGER

@<TRIPOS>ATOM
      1  N         -5.1240    0.2200   -1.1680 N.3    17  LEU17      -0.1231
      2  CA        -6.4290   -0.3520   -1.3470 C.3    17  LEU17       0.1693
      3  CB        -6.5650   -1.4580   -0.3110 C.3    17  LEU17       0.0284
      4  CG        -7.7460   -2.4340   -0.5060 C.3    17  LEU17       0.0019
      5  CD1       -7.8580   -3.0370   -1.9450 C.3    17  LEU17       0.0001
      6  CD2       -7.5480   -3.6660    0.4700 C.3    17  LEU17       0.0001
      7  C         -7.5570    0.7230   -1.1910 C.2    17  LEU17       0.2592
      8  O         -8.5080    0.5920   -1.9290 O.2    17  LEU17      -0.2718
      9  N         -7.3530    1.6930   -0.3160 N.am   18  ASP18      -0.1960
     10  CA        -8.3710    2.6970    0.0290 C.3    18  ASP18       0.1840
     11  CB        -9.1830    2.2270    1.2540 C.3    18  ASP18       0.1450
     12  CG       -10.1190    3.2280    1.8640 C.2    18  ASP18       0.3671
     13  OD1      -11.1530    3.6680    1.3060 O.co2  18  ASP18      -0.2456
     14  OD2       -9.7570    3.7260    2.9640 O.co2  18  ASP18      -0.2456
     15  C         -7.6950    4.0470    0.2940 C.2    18  ASP18       0.2622
     16  O         -8.1320    5.0650   -0.2880 O.2    18  ASP18      -0.2715
     17  N         -6.7180    4.0860    1.1840 N.am   19  ILE19      -0.1963
     18  CA        -5.9940    5.2620    1.5960 C.3    19  ILE19       0.1727
     19  CB        -5.0730    4.9940    2.8050 C.3    19  ILE19       0.0290
     20  CG2       -4.3720    6.2200    3.3260 C.3    19  ILE19       0.0023
     21  CG1       -5.9700    4.4790    3.9280 C.3    19  ILE19       0.0022
     22  CD1       -5.1800    3.8570    5.1220 C.3    19  ILE19       0.0001
     23  C         -5.0600    5.7250    0.4830 C.2    19  ILE19       0.2616
     24  O         -4.9460    6.9140    0.1610 O.2    19  ILE19      -0.2715
     25  N         -4.3130    4.7870   -0.1330 N.am   20  ILE20      -0.1963
     26  CA        -3.5800    4.9710   -1.3970 C.3    20  ILE20       0.1727
     27  CB        -2.1460    4.3850   -1.3300 C.3    20  ILE20       0.0290
     28  CG2       -1.2570    4.4980   -2.6400 C.3    20  ILE20       0.0023
     29  CG1       -1.4410    5.1330   -0.1760 C.3    20  ILE20       0.0022
     30  CD1        0.0370    4.7250    0.0590 C.3    20  ILE20       0.0001
     31  C         -4.3770    4.3220   -2.4840 C.2    20  ILE20       0.2617
     32  O         -4.3780    3.0980   -2.4750 O.2    20  ILE20      -0.2715
     33  N         -5.1280    5.0160   -3.3140 N.am   21  TRP21      -0.1941
     34  CA        -5.8240    4.4130   -4.4310 C.3    21  TRP21       0.1982
     35  CB        -7.2260    3.9060   -3.9570 C.3    21  TRP21       0.0394
     36  CG        -8.0780    3.1360   -4.9220 C.3    21  TRP21       0.0475
     37  CD1       -9.0450    3.6780   -5.6240 C.3    21  TRP21       0.1166
     38  NE1       -9.5590    2.7360   -6.4910 N.pl3  21  TRP21      -0.2376
     39  CE2       -8.9590    1.4790   -6.3190 C.ar   21  TRP21       0.0614
     40  CZ2       -9.1040    0.2160   -6.8210 C.ar   21  TRP21       0.0158
     41  CH2       -8.4150   -0.9370   -6.3400 C.ar   21  TRP21       0.0013
     42  CZ3       -7.4180   -0.6890   -5.3420 C.ar   21  TRP21      -0.0002
     43  CE3       -7.2370    0.6130   -4.8350 C.ar   21  TRP21      -0.0030
     44  CD2       -8.0160    1.7350   -5.2970 C.ar   21  TRP21      -0.0059
     45  C         -5.8960    5.3640   -5.6200 C.2    21  TRP21       0.3842
     46  O         -5.4660    5.0720   -6.7740 O.co2  21  TRP21      -0.2437
     47  OXT       -6.0980    6.5780   -5.4070 O.co2  21  TRP21      -0.2437
@<TRIPOS>BOND
     1    40    41   ar
     2    40    39   ar
     3    41    42   ar
     4    39    38    1
     5    39    44   ar
     6    42    43   ar
     7    38    37    1
     8    43    44   ar
     9    44    36    1
    10    37    36    1
    11    36    35    1
    12    47    45   ar
    13     5     4    1
    14    35    34    1
    15    45    34    1
    16    45    46   ar
    17    34    33    1
    18     8     7    2
    19     4     6    1
    20     4     3    1
    21     2     3    1
    22     2     1    1
    23     2     7    1
    24     7     9   am
    25    33    31   am
    26    32    31    2
    27    31    26    1
    28     9    10    1
    29    10    11    1
    30    10    15    1
    31    26    27    1
    32    26    25    1
    33    11    12    1
    34    13    12   ar
    35    27    29    1
    36    27    28    1
    37    29    30    1
    38    16    15    2
    39    15    17   am
    40    12    14   ar
    41    25    23   am
    42    17    18    1
    43    23    24    2
    44    23    18    1
    45    18    19    1
    46    19    21    1
    47    19    20    1
    48    21    22    1
