@<TRIPOS>MOLECULE
../ET1/ET1_17-21_50CONFORMERS_NOBACKBONE.pdb
 26 23 0 0 0
SMALL
GASTEIGER

@<TRIPOS>ATOM
      1  CB        -6.3140   -1.7030   -1.0200 C.3    17  LEU17       0.0000
      2  CG        -7.7120   -2.3290   -1.2350 C.3    17  LEU17       0.0000
      3  CD1       -7.8370   -2.7490   -2.7140 C.3    17  LEU17       0.0000
      4  CD2       -7.9870   -3.4570   -0.2360 C.3    17  LEU17       0.0000
      5  CB        -9.1000    1.3640    0.7210 C.3    18  ASP18       0.1258
      6  CG       -10.3480    2.1540    1.2570 C.2    18  ASP18       0.3654
      7  OD1      -11.2810    2.3270    0.4800 O.co2  18  ASP18      -0.2456
      8  OD2      -10.2640    2.7880    2.3400 O.co2  18  ASP18      -0.2456
      9  CB        -4.8180    4.2690    2.8000 C.3    19  ILE19       0.0000
     10  CG2       -4.1370    5.5640    3.2470 C.3    19  ILE19       0.0000
     11  CG1       -5.5690    3.5730    4.0300 C.3    19  ILE19       0.0000
     12  CD1       -4.5530    2.8980    4.9200 C.3    19  ILE19       0.0000
     13  CB        -2.6170    5.5690   -1.4950 C.3    20  ILE20       0.0000
     14  CG2       -2.4710    6.9190   -0.7040 C.3    20  ILE20       0.0000
     15  CG1       -1.7440    4.4260   -0.8990 C.3    20  ILE20       0.0000
     16  CD1       -0.3100    4.4600   -1.3900 C.3    20  ILE20       0.0000
     17  CB        -6.4360    3.8300   -5.0650 C.3    21  TRP21       0.0066
     18  CG        -6.9980    2.9980   -6.1850 C.3    21  TRP21       0.0452
     19  CD1       -7.6910    3.4970   -7.2190 C.3    21  TRP21       0.1165
     20  NE1       -8.1030    2.4010   -8.0210 N.pl3  21  TRP21      -0.2376
     21  CE2       -7.5430    1.2310   -7.6120 C.ar   21  TRP21       0.0614
     22  CZ2       -7.5740   -0.0530   -8.1410 C.ar   21  TRP21       0.0158
     23  CH2       -7.0500   -1.0880   -7.3830 C.ar   21  TRP21       0.0013
     24  CZ3       -6.4280   -0.8890   -6.1760 C.ar   21  TRP21      -0.0002
     25  CE3       -6.3020    0.4230   -5.7090 C.ar   21  TRP21      -0.0030
     26  CD2       -6.9040    1.5300   -6.3920 C.ar   21  TRP21      -0.0059
@<TRIPOS>BOND
     1    22    23   ar
     2    22    21   ar
     3    23    24   ar
     4    21    20    1
     5    21    26   ar
     6    24    25   ar
     7    20    19    1
     8    25    26   ar
     9    26    18    1
    10    19    18    1
    11    18    17    1
    12     3     2    1
    13     2     4    1
    14     2     1    1
    15     5     6    1
    16     7     6   ar
    17    13    15    1
    18    13    14    1
    19    15    16    1
    20     6     8   ar
    21     9    11    1
    22     9    10    1
    23    11    12    1
@<TRIPOS>MOLECULE
6433095
 41 45 0 0 0
SMALL
GASTEIGER

@<TRIPOS>ATOM
      1 S          -1.4812   -0.5687   -5.7427 S.O2    1  LIG11       0.0908
      2 O          -4.7325   -1.5232   -5.2703 O.3     1  LIG11      -0.4435
      3 O          -6.6248   -0.8710   -3.2169 O.3     1  LIG11      -0.4715
      4 O          -2.1432   -1.1197   -6.9150 O.2     1  LIG11      -0.1484
      5 O          -0.0336   -0.5363   -5.7063 O.2     1  LIG11      -0.1484
      6 O          -6.1057   -2.9747   -7.0314 O.3     1  LIG11      -0.4914
      7 O          -5.9054   -3.4852   -1.8761 O.3     1  LIG11      -0.3917
      8 N          -2.0216   -1.5523   -4.4723 N.pl3   1  LIG11      -0.1950
      9 N          -2.6243   -0.6223   -2.4504 N.ar    1  LIG11      -0.2073
     10 N          -4.8823   -0.2241   -1.8329 N.ar    1  LIG11      -0.1899
     11 N          -1.8481    1.6697   -4.3375 N.ar    1  LIG11      -0.2351
     12 N          -2.3822    1.4305    2.1936 N.ar    1  LIG11      -0.2552
     13 N           0.0514    0.5579    3.4271 N.ar    1  LIG11      -0.5621
     14 N           0.6489   -0.5792    1.5661 N.ar    1  LIG11      -0.1535
     15 N           1.2335   -0.0593    3.5200 N.ar    1  LIG11      -0.3597
     16 N           1.6298   -0.7429    2.4423 N.ar    1  LIG11      -0.0878
     17 C          -3.0689   -1.0499   -3.6435 C.ar    1  LIG11       0.1882
     18 C          -4.3965   -1.0750   -4.0252 C.ar    1  LIG11       0.2307
     19 C          -5.2695   -0.7409   -3.0119 C.ar    1  LIG11       0.2641
     20 C          -3.5606   -0.1830   -1.5988 C.ar    1  LIG11       0.1659
     21 C          -2.0893    1.1011   -5.5450 C.ar    1  LIG11       0.1969
     22 C          -3.1344    0.3799   -0.3093 C.ar    1  LIG11       0.0227
     23 C          -2.7301    1.7355   -6.5988 C.ar    1  LIG11      -0.0160
     24 C          -5.7306   -0.8798   -5.9776 C.ar    1  LIG11       0.1702
     25 C          -1.8954    0.0616    0.2672 C.ar    1  LIG11      -0.0252
     26 C          -2.9084    3.6776   -5.1787 C.ar    1  LIG11      -0.0322
     27 C          -3.1471    3.0489   -6.4042 C.ar    1  LIG11      -0.0541
     28 C          -3.9739    1.2480    0.4046 C.ar    1  LIG11      -0.0328
     29 C          -7.2989   -1.5031   -2.1195 C.3     1  LIG11       0.1143
     30 C          -1.5607    0.5860    1.5147 C.ar    1  LIG11       0.0708
     31 C          -2.2575    2.9463   -4.1879 C.ar    1  LIG11       0.0327
     32 C          -6.4448   -1.6505   -6.9063 C.ar    1  LIG11       0.1621
     33 C          -6.0157    0.4870   -5.8546 C.ar    1  LIG11      -0.0157
     34 C          -3.5603    1.7438    1.6260 C.ar    1  LIG11       0.0289
     35 C          -3.3129    5.0967   -4.9313 C.3     1  LIG11      -0.0383
     36 C          -7.2102   -3.0271   -2.2237 C.3     1  LIG11       0.0783
     37 C          -7.5018   -1.0784   -7.6221 C.ar    1  LIG11      -0.0163
     38 C          -7.0603    1.0571   -6.5846 C.ar    1  LIG11      -0.0581
     39 C          -7.8109    0.2724   -7.4565 C.ar    1  LIG11      -0.0581
     40 C          -0.3054    0.2130    2.1726 C.ar    1  LIG11       0.0207
     41 C          -6.0423   -3.4166   -8.3864 C.3     1  LIG11       0.0790
@<TRIPOS>BOND
     1     1     4    2
     2     1     5    2
     3     1     8    1
     4     1    21    1
     5     2    18    1
     6     2    24    1
     7     3    19    1
     8     3    29    1
     9     6    32    1
    10     6    41    1
    11     7    36    1
    12     8    17    1
    13     9    17   ar
    14     9    20   ar
    15    10    19   ar
    16    10    20   ar
    17    11    21   ar
    18    11    31   ar
    19    12    30   ar
    20    12    34   ar
    21    13    15   ar
    22    13    40   ar
    23    14    16   ar
    24    14    40   ar
    25    15    16   ar
    26    17    18   ar
    27    18    19   ar
    28    20    22    1
    29    21    23   ar
    30    22    25   ar
    31    22    28   ar
    32    23    27   ar
    33    24    32   ar
    34    24    33   ar
    35    25    30   ar
    36    26    27   ar
    37    26    31   ar
    38    26    35    1
    39    28    34   ar
    40    29    36    1
    41    30    40    1
    42    32    37   ar
    43    33    38   ar
    44    37    39   ar
    45    38    39   ar
@<TRIPOS>MOLECULE
../ET1/ET1_17-21_50CONFORMERS.pdb
 47 48 0 0 0
SMALL
GASTEIGER

@<TRIPOS>ATOM
      1  N         -4.7690    0.1010   -1.6400 N.3    17  LEU17      -0.1231
      2  CA        -6.0160   -0.5120   -2.0050 C.3    17  LEU17       0.1693
      3  CB        -6.3140   -1.7030   -1.0200 C.3    17  LEU17       0.0284
      4  CG        -7.7120   -2.3290   -1.2350 C.3    17  LEU17       0.0019
      5  CD1       -7.8370   -2.7490   -2.7140 C.3    17  LEU17       0.0001
      6  CD2       -7.9870   -3.4570   -0.2360 C.3    17  LEU17       0.0001
      7  C         -7.1180    0.5280   -1.8380 C.2    17  LEU17       0.2592
      8  O         -7.8620    0.8130   -2.8010 O.2    17  LEU17      -0.2718
      9  N         -7.1810    1.2020   -0.7160 N.am   18  ASP18      -0.1960
     10  CA        -8.1440    2.1370   -0.2650 C.3    18  ASP18       0.1840
     11  CB        -9.1000    1.3640    0.7210 C.3    18  ASP18       0.1450
     12  CG       -10.3480    2.1540    1.2570 C.2    18  ASP18       0.3671
     13  OD1      -11.2810    2.3270    0.4800 O.co2  18  ASP18      -0.2456
     14  OD2      -10.2640    2.7880    2.3400 O.co2  18  ASP18      -0.2456
     15  C         -7.6710    3.4460    0.3440 C.2    18  ASP18       0.2622
     16  O         -8.0810    4.5030   -0.1220 O.2    18  ASP18      -0.2715
     17  N         -6.6590    3.4240    1.2540 N.am   19  ILE19      -0.1963
     18  CA        -5.9390    4.6200    1.7680 C.3    19  ILE19       0.1727
     19  CB        -4.8180    4.2690    2.8000 C.3    19  ILE19       0.0290
     20  CG2       -4.1370    5.5640    3.2470 C.3    19  ILE19       0.0023
     21  CG1       -5.5690    3.5730    4.0300 C.3    19  ILE19       0.0022
     22  CD1       -4.5530    2.8980    4.9200 C.3    19  ILE19       0.0001
     23  C         -5.3610    5.3850    0.5350 C.2    19  ILE19       0.2616
     24  O         -5.6970    6.5880    0.3160 O.2    19  ILE19      -0.2715
     25  N         -4.6040    4.6750   -0.3290 N.am   20  ILE20      -0.1963
     26  CA        -4.1080    5.2050   -1.5810 C.3    20  ILE20       0.1727
     27  CB        -2.6170    5.5690   -1.4950 C.3    20  ILE20       0.0290
     28  CG2       -2.4710    6.9190   -0.7040 C.3    20  ILE20       0.0023
     29  CG1       -1.7440    4.4260   -0.8990 C.3    20  ILE20       0.0022
     30  CD1       -0.3100    4.4600   -1.3900 C.3    20  ILE20       0.0001
     31  C         -4.2640    4.2090   -2.7410 C.2    20  ILE20       0.2617
     32  O         -4.1140    3.0170   -2.5420 O.2    20  ILE20      -0.2715
     33  N         -4.5860    4.7690   -3.9350 N.am   21  TRP21      -0.1941
     34  CA        -4.9380    4.0930   -5.2110 C.3    21  TRP21       0.1982
     35  CB        -6.4360    3.8300   -5.0650 C.3    21  TRP21       0.0394
     36  CG        -6.9980    2.9980   -6.1850 C.3    21  TRP21       0.0475
     37  CD1       -7.6910    3.4970   -7.2190 C.3    21  TRP21       0.1166
     38  NE1       -8.1030    2.4010   -8.0210 N.pl3  21  TRP21      -0.2376
     39  CE2       -7.5430    1.2310   -7.6120 C.ar   21  TRP21       0.0614
     40  CZ2       -7.5740   -0.0530   -8.1410 C.ar   21  TRP21       0.0158
     41  CH2       -7.0500   -1.0880   -7.3830 C.ar   21  TRP21       0.0013
     42  CZ3       -6.4280   -0.8890   -6.1760 C.ar   21  TRP21      -0.0002
     43  CE3       -6.3020    0.4230   -5.7090 C.ar   21  TRP21      -0.0030
     44  CD2       -6.9040    1.5300   -6.3920 C.ar   21  TRP21      -0.0059
     45  C         -4.5080    4.8730   -6.4800 C.2    21  TRP21       0.3842
     46  O         -4.2510    4.2570   -7.5450 O.co2  21  TRP21      -0.2437
     47  OXT       -4.4690    6.1530   -6.4480 O.co2  21  TRP21      -0.2437
@<TRIPOS>BOND
     1    40    41   ar
     2    40    39   ar
     3    41    42   ar
     4    39    38    1
     5    39    44   ar
     6    42    43   ar
     7    38    37    1
     8    43    44   ar
     9    44    36    1
    10    37    36    1
    11    36    35    1
    12    47    45   ar
    13     5     4    1
    14    35    34    1
    15    45    34    1
    16    45    46   ar
    17    34    33    1
    18     8     7    2
    19     4     6    1
    20     4     3    1
    21     2     3    1
    22     2     1    1
    23     2     7    1
    24     7     9   am
    25    33    31   am
    26    32    31    2
    27    31    26    1
    28     9    10    1
    29    10    11    1
    30    10    15    1
    31    26    27    1
    32    26    25    1
    33    11    12    1
    34    13    12   ar
    35    27    29    1
    36    27    28    1
    37    29    30    1
    38    16    15    2
    39    15    17   am
    40    12    14   ar
    41    25    23   am
    42    17    18    1
    43    23    24    2
    44    23    18    1
    45    18    19    1
    46    19    21    1
    47    19    20    1
    48    21    22    1
