@<TRIPOS>MOLECULE
../ET1/ET1_17-21_50CONFORMERS_NOBACKBONE.pdb
 26 23 0 0 0
SMALL
GASTEIGER

@<TRIPOS>ATOM
      1  CB        -6.2370   -1.9060   -0.8090 C.3    17  LEU17       0.0000
      2  CG        -7.4660   -2.8090   -0.9810 C.3    17  LEU17       0.0000
      3  CD1       -7.3560   -3.4820   -2.3060 C.3    17  LEU17       0.0000
      4  CD2       -7.3870   -3.9310    0.0580 C.3    17  LEU17       0.0000
      5  CB        -9.3740    1.0100    0.5840 C.3    18  ASP18       0.1258
      6  CG       -10.8760    1.2590    0.5410 C.2    18  ASP18       0.3654
      7  OD1      -11.5100    0.8800   -0.4640 O.co2  18  ASP18      -0.2456
      8  OD2      -11.4980    1.6580    1.5360 O.co2  18  ASP18      -0.2456
      9  CB        -5.9820    3.8140    3.0930 C.3    19  ILE19       0.0000
     10  CG2       -5.2490    4.8290    3.9590 C.3    19  ILE19       0.0000
     11  CG1       -6.9490    2.9710    4.0280 C.3    19  ILE19       0.0000
     12  CD1       -8.1430    3.7570    4.6140 C.3    19  ILE19       0.0000
     13  CB        -2.7750    5.8290   -0.2290 C.3    20  ILE20       0.0000
     14  CG2       -2.5690    6.8090    0.9650 C.3    20  ILE20       0.0000
     15  CG1       -2.1270    4.4210    0.0750 C.3    20  ILE20       0.0000
     16  CD1       -0.6210    4.3880   -0.2750 C.3    20  ILE20       0.0000
     17  CB        -5.4540    6.6020   -4.8090 C.3    21  TRP21       0.0066
     18  CG        -6.6880    5.9210   -4.2770 C.3    21  TRP21       0.0452
     19  CD1       -7.1570    6.0380   -3.0010 C.3    21  TRP21       0.1165
     20  NE1       -8.3640    5.3580   -2.9180 N.pl3  21  TRP21      -0.2376
     21  CE2       -8.5990    4.5980   -4.0280 C.ar   21  TRP21       0.0614
     22  CZ2       -9.6310    3.7400   -4.3800 C.ar   21  TRP21       0.0158
     23  CH2       -9.4910    3.1980   -5.6310 C.ar   21  TRP21       0.0013
     24  CZ3       -8.4310    3.4250   -6.5820 C.ar   21  TRP21      -0.0002
     25  CE3       -7.3850    4.2640   -6.2140 C.ar   21  TRP21      -0.0030
     26  CD2       -7.4930    4.8870   -4.9130 C.ar   21  TRP21      -0.0059
@<TRIPOS>BOND
     1    22    23   ar
     2    22    21   ar
     3    23    24   ar
     4    21    20    1
     5    21    26   ar
     6    24    25   ar
     7    20    19    1
     8    25    26   ar
     9    26    18    1
    10    19    18    1
    11    18    17    1
    12     3     2    1
    13     2     4    1
    14     2     1    1
    15     5     6    1
    16     7     6   ar
    17    13    15    1
    18    13    14    1
    19    15    16    1
    20     6     8   ar
    21     9    11    1
    22     9    10    1
    23    11    12    1
@<TRIPOS>MOLECULE
*****
 39 42 0 0 0
SMALL
GASTEIGER

@<TRIPOS>ATOM
      1 C         -16.2172    5.6812   -8.5169 C.ar    1  LIG11       0.0483
      2 C         -16.1609    5.7623   -9.8889 C.ar    1  LIG11       0.0543
      3 C         -15.2207    4.9609  -10.4925 C.ar    1  LIG11       0.0483
      4 N         -14.3948    4.1398   -9.8105 N.ar    1  LIG11      -0.2022
      5 N         -15.4198    4.8748   -7.7827 N.ar    1  LIG11      -0.2022
      6 C          -7.5032    3.5651   -7.1954 C.ar    1  LIG11      -0.0504
      7 C          -8.5846    2.6866   -7.1172 C.ar    1  LIG11      -0.0583
      8 C          -9.4870    2.7644   -6.0505 C.ar    1  LIG11      -0.0535
      9 C          -9.3467    3.7246   -5.0314 C.ar    1  LIG11      -0.0094
     10 C          -8.2656    4.6171   -5.1409 C.ar    1  LIG11      -0.0535
     11 C          -7.3465    4.5276   -6.1950 C.ar    1  LIG11      -0.0583
     12 C          -3.8671    2.8301   -0.5131 C.ar    1  LIG11      -0.0561
     13 C          -5.0763    2.3693   -1.0455 C.ar    1  LIG11      -0.0348
     14 C          -6.0656    3.2837   -1.4047 C.ar    1  LIG11       0.1086
     15 C          -5.8392    4.6520   -1.2523 C.ar    1  LIG11      -0.0348
     16 C          -4.6339    5.1028   -0.7029 C.ar    1  LIG11      -0.0561
     17 C          -2.3038    4.6824    0.3286 C.3     1  LIG11       0.0132
     18 C          -3.6280    4.2048   -0.3065 C.ar    1  LIG11      -0.0394
     19 C          -1.1487    4.3655   -0.6451 C.3     1  LIG11      -0.0537
     20 C          -2.0376    3.9501    1.6750 C.3     1  LIG11       0.0533
     21 C          -2.2651    6.2044    0.6109 C.3     1  LIG11      -0.0537
     22 O          -3.0218    4.2619    2.6589 O.3     1  LIG11      -0.3942
     23 S          -7.6374    2.6518   -1.9681 S.O2    1  LIG11       0.0735
     24 O          -7.4142    2.0902   -3.2803 O.2     1  LIG11      -0.1499
     25 O          -8.1652    1.8663   -0.8784 O.2     1  LIG11      -0.1499
     26 N          -8.5719    4.0625   -2.0675 N.pl3   1  LIG11      -0.1988
     27 C         -10.2803    3.7611   -3.8826 C.ar    1  LIG11       0.0847
     28 C         -11.6694    3.7181   -4.0170 C.ar    1  LIG11       0.2276
     29 N         -12.5438    3.7586   -2.9878 N.ar    1  LIG11      -0.2008
     30 C         -12.0232    3.8680   -1.7682 C.ar    1  LIG11       0.1219
     31 N         -10.7261    3.9613   -1.4912 N.ar    1  LIG11      -0.2186
     32 C          -9.8989    3.8868   -2.5507 C.ar    1  LIG11       0.1524
     33 C          -6.4852    3.4222   -8.2867 C.3     1  LIG11      -0.0397
     34 O         -12.1972    3.6109   -5.2895 O.3     1  LIG11      -0.4724
     35 C         -13.6101    3.8231   -5.4150 C.3     1  LIG11       0.1252
     36 C         -14.1395    2.9050   -6.5173 C.3     1  LIG11       0.1267
     37 O         -13.6726    3.2985   -7.8082 O.3     1  LIG11      -0.4590
     38 C         -14.5397    4.1303   -8.4774 C.ar    1  LIG11       0.3180
     39 BR        -17.2920    6.8921  -10.8717 Br      1  LIG11      -0.0472
@<TRIPOS>BOND
     1     1     2   ar
     2     2     3   ar
     3     2    39    1
     4     3     4   ar
     5     4    38   ar
     6     5     1   ar
     7     6     7   ar
     8     6    33    1
     9     7     8   ar
    10     8     9   ar
    11     9    10   ar
    12    10    11   ar
    13    11     6   ar
    14    12    13   ar
    15    13    14   ar
    16    14    15   ar
    17    15    16   ar
    18    16    18   ar
    19    17    18    1
    20    17    21    1
    21    17    20    1
    22    17    19    1
    23    18    12   ar
    24    20    22    1
    25    23    26    1
    26    23    25    2
    27    23    24    2
    28    23    14    1
    29    26    32    1
    30    27    28   ar
    31    27     9    1
    32    28    29   ar
    33    29    30   ar
    34    30    31   ar
    35    31    32   ar
    36    32    27   ar
    37    34    35    1
    38    34    28    1
    39    35    36    1
    40    36    37    1
    41    37    38    1
    42    38     5   ar
@<TRIPOS>MOLECULE
../ET1/ET1_17-21_50CONFORMERS.pdb
 47 48 0 0 0
SMALL
GASTEIGER

@<TRIPOS>ATOM
      1  N         -4.8560    0.0190   -1.3960 N.3    17  LEU17      -0.1231
      2  CA        -6.0070   -0.7600   -1.8020 C.3    17  LEU17       0.1693
      3  CB        -6.2370   -1.9060   -0.8090 C.3    17  LEU17       0.0284
      4  CG        -7.4660   -2.8090   -0.9810 C.3    17  LEU17       0.0019
      5  CD1       -7.3560   -3.4820   -2.3060 C.3    17  LEU17       0.0001
      6  CD2       -7.3870   -3.9310    0.0580 C.3    17  LEU17       0.0001
      7  C         -7.1880    0.1770   -1.7760 C.2    17  LEU17       0.2592
      8  O         -7.9480    0.2100   -2.7610 O.2    17  LEU17      -0.2718
      9  N         -7.3090    0.9660   -0.6710 N.am   18  ASP18      -0.1960
     10  CA        -8.4950    1.7900   -0.3680 C.3    18  ASP18       0.1840
     11  CB        -9.3740    1.0100    0.5840 C.3    18  ASP18       0.1450
     12  CG       -10.8760    1.2590    0.5410 C.2    18  ASP18       0.3671
     13  OD1      -11.5100    0.8800   -0.4640 O.co2  18  ASP18      -0.2456
     14  OD2      -11.4980    1.6580    1.5360 O.co2  18  ASP18      -0.2456
     15  C         -8.2290    3.1800    0.2770 C.2    18  ASP18       0.2622
     16  O         -8.8100    4.1600   -0.1410 O.2    18  ASP18      -0.2715
     17  N         -7.3150    3.2400    1.2190 N.am   19  ILE19      -0.1963
     18  CA        -6.7420    4.3780    1.9070 C.3    19  ILE19       0.1727
     19  CB        -5.9820    3.8140    3.0930 C.3    19  ILE19       0.0290
     20  CG2       -5.2490    4.8290    3.9590 C.3    19  ILE19       0.0023
     21  CG1       -6.9490    2.9710    4.0280 C.3    19  ILE19       0.0022
     22  CD1       -8.1430    3.7570    4.6140 C.3    19  ILE19       0.0001
     23  C         -5.8920    5.3340    1.0330 C.2    19  ILE19       0.2616
     24  O         -6.0450    6.5710    1.1950 O.2    19  ILE19      -0.2715
     25  N         -5.0480    4.8540    0.1700 N.am   20  ILE20      -0.1963
     26  CA        -4.2510    5.7060   -0.7240 C.3    20  ILE20       0.1727
     27  CB        -2.7750    5.8290   -0.2290 C.3    20  ILE20       0.0290
     28  CG2       -2.5690    6.8090    0.9650 C.3    20  ILE20       0.0023
     29  CG1       -2.1270    4.4210    0.0750 C.3    20  ILE20       0.0022
     30  CD1       -0.6210    4.3880   -0.2750 C.3    20  ILE20       0.0001
     31  C         -4.2740    5.1040   -2.1200 C.2    20  ILE20       0.2617
     32  O         -4.4960    3.9560   -2.3960 O.2    20  ILE20      -0.2715
     33  N         -3.8620    6.0050   -3.0600 N.am   21  TRP21      -0.1941
     34  CA        -4.0860    5.9150   -4.5310 C.3    21  TRP21       0.1982
     35  CB        -5.4540    6.6020   -4.8090 C.3    21  TRP21       0.0394
     36  CG        -6.6880    5.9210   -4.2770 C.3    21  TRP21       0.0475
     37  CD1       -7.1570    6.0380   -3.0010 C.3    21  TRP21       0.1166
     38  NE1       -8.3640    5.3580   -2.9180 N.pl3  21  TRP21      -0.2376
     39  CE2       -8.5990    4.5980   -4.0280 C.ar   21  TRP21       0.0614
     40  CZ2       -9.6310    3.7400   -4.3800 C.ar   21  TRP21       0.0158
     41  CH2       -9.4910    3.1980   -5.6310 C.ar   21  TRP21       0.0013
     42  CZ3       -8.4310    3.4250   -6.5820 C.ar   21  TRP21      -0.0002
     43  CE3       -7.3850    4.2640   -6.2140 C.ar   21  TRP21      -0.0030
     44  CD2       -7.4930    4.8870   -4.9130 C.ar   21  TRP21      -0.0059
     45  C         -2.9310    6.6240   -5.2100 C.2    21  TRP21       0.3842
     46  O         -2.3500    6.0530   -6.1390 O.co2  21  TRP21      -0.2437
     47  OXT       -2.5760    7.8240   -4.9370 O.co2  21  TRP21      -0.2437
@<TRIPOS>BOND
     1    40    41   ar
     2    40    39   ar
     3    41    42   ar
     4    39    38    1
     5    39    44   ar
     6    42    43   ar
     7    38    37    1
     8    43    44   ar
     9    44    36    1
    10    37    36    1
    11    36    35    1
    12    47    45   ar
    13     5     4    1
    14    35    34    1
    15    45    34    1
    16    45    46   ar
    17    34    33    1
    18     8     7    2
    19     4     6    1
    20     4     3    1
    21     2     3    1
    22     2     1    1
    23     2     7    1
    24     7     9   am
    25    33    31   am
    26    32    31    2
    27    31    26    1
    28     9    10    1
    29    10    11    1
    30    10    15    1
    31    26    27    1
    32    26    25    1
    33    11    12    1
    34    13    12   ar
    35    27    29    1
    36    27    28    1
    37    29    30    1
    38    16    15    2
    39    15    17   am
    40    12    14   ar
    41    25    23   am
    42    17    18    1
    43    23    24    2
    44    23    18    1
    45    18    19    1
    46    19    21    1
    47    19    20    1
    48    21    22    1
