@<TRIPOS>MOLECULE
../ET1/ET1_17-21_50CONFORMERS_NOBACKBONE.pdb
 26 23 0 0 0
SMALL
GASTEIGER

@<TRIPOS>ATOM
      1  CB        -6.2190   -2.1170   -0.8960 C.3    17  LEU17       0.0000
      2  CG        -7.3800   -3.0070   -1.1050 C.3    17  LEU17       0.0000
      3  CD1       -7.3860   -3.4900   -2.5640 C.3    17  LEU17       0.0000
      4  CD2       -7.3430   -4.0760   -0.0430 C.3    17  LEU17       0.0000
      5  CB        -9.4430    0.9030    1.2800 C.3    18  ASP18       0.1258
      6  CG       -10.6600    1.6150    1.8360 C.2    18  ASP18       0.3654
      7  OD1      -10.7720    1.7600    3.0590 O.co2  18  ASP18      -0.2456
      8  OD2      -11.5850    1.9260    1.0620 O.co2  18  ASP18      -0.2456
      9  CB        -5.5470    3.9840    3.3090 C.3    19  ILE19       0.0000
     10  CG2       -4.9560    5.2630    3.9590 C.3    19  ILE19       0.0000
     11  CG1       -6.0260    3.0070    4.3510 C.3    19  ILE19       0.0000
     12  CD1       -7.3500    3.4430    4.9740 C.3    19  ILE19       0.0000
     13  CB        -3.1740    5.6250   -0.5010 C.3    20  ILE20       0.0000
     14  CG2       -2.9430    6.4710    0.7960 C.3    20  ILE20       0.0000
     15  CG1       -2.1960    4.4100   -0.4230 C.3    20  ILE20       0.0000
     16  CD1       -0.6690    4.8000   -0.3990 C.3    20  ILE20       0.0000
     17  CB        -6.1600    5.9050   -4.9820 C.3    21  TRP21       0.0066
     18  CG        -7.2690    5.4400   -4.0860 C.3    21  TRP21       0.0452
     19  CD1       -7.7180    6.0320   -2.9590 C.3    21  TRP21       0.1165
     20  NE1       -8.7190    5.3870   -2.3980 N.pl3  21  TRP21      -0.2376
     21  CE2       -9.0240    4.2500   -3.0660 C.ar   21  TRP21       0.0614
     22  CZ2       -9.9610    3.2050   -2.9090 C.ar   21  TRP21       0.0158
     23  CH2      -10.0770    2.1920   -3.7900 C.ar   21  TRP21       0.0013
     24  CZ3       -9.2010    2.2250   -4.9010 C.ar   21  TRP21      -0.0002
     25  CE3       -8.2180    3.2070   -5.0950 C.ar   21  TRP21      -0.0030
     26  CD2       -8.1340    4.2600   -4.1610 C.ar   21  TRP21      -0.0059
@<TRIPOS>BOND
     1    22    23   ar
     2    22    21   ar
     3    23    24   ar
     4    21    20    1
     5    21    26   ar
     6    24    25   ar
     7    20    19    1
     8    25    26   ar
     9    26    18    1
    10    19    18    1
    11    18    17    1
    12     3     2    1
    13     2     4    1
    14     2     1    1
    15     5     6    1
    16     7     6   ar
    17    13    15    1
    18    13    14    1
    19    15    16    1
    20     6     8   ar
    21     9    11    1
    22     9    10    1
    23    11    12    1
@<TRIPOS>MOLECULE
16004692
 32 34 0 0 0
SMALL
GASTEIGER

@<TRIPOS>ATOM
      1 BR        -12.5530    3.7275   -2.0884 Br      1  LIG11      -0.0503
      2 BR         -3.4399   11.2682   -1.2912 Br      1  LIG11      -0.0472
      3 S          -7.5505   -1.4376   -4.8007 S.O2    1  LIG11       0.1104
      4 O          -6.4262    4.3266   -4.7441 O.3     1  LIG11      -0.4724
      5 O          -6.3053   -1.9347   -5.3262 O.2     1  LIG11      -0.1381
      6 O          -8.7036   -2.2991   -4.6831 O.2     1  LIG11      -0.1381
      7 O          -5.2750    7.6675   -5.6512 O.3     1  LIG11      -0.4590
      8 N          -7.2225   -0.7554   -3.2964 N.3     1  LIG11      -0.1771
      9 N          -8.0500   -0.1110   -5.6978 N.pl3   1  LIG11      -0.1889
     10 N          -6.0747    0.6846   -6.5444 N.ar    1  LIG11      -0.2186
     11 N          -5.1726    2.7981   -5.9843 N.ar    1  LIG11      -0.2008
     12 N          -4.7801    7.9534   -3.3730 N.ar    1  LIG11      -0.2022
     13 N          -4.5408    9.7212   -4.9625 N.ar    1  LIG11      -0.2022
     14 C          -6.6274   -1.6881   -2.3003 C.3     1  LIG11       0.0185
     15 C          -7.3620    2.1819   -5.1233 C.ar    1  LIG11       0.0848
     16 C          -7.1392    0.9764   -5.7834 C.ar    1  LIG11       0.1532
     17 C          -7.6310   -2.6808   -1.7358 C.3     1  LIG11      -0.0416
     18 C          -8.6007    2.5144   -4.3712 C.ar    1  LIG11      -0.0094
     19 C          -6.3024    3.0709   -5.3000 C.ar    1  LIG11       0.2276
     20 C          -6.9806   -3.5595   -0.6772 C.3     1  LIG11      -0.0641
     21 C          -8.5621    3.2115   -3.1469 C.ar    1  LIG11      -0.0527
     22 C          -9.8754    2.1795   -4.8695 C.ar    1  LIG11      -0.0527
     23 C          -5.4501    5.2963   -5.1283 C.3     1  LIG11       0.1252
     24 C          -9.7324    3.5800   -2.4712 C.ar    1  LIG11      -0.0472
     25 C         -11.0489    2.5212   -4.1862 C.ar    1  LIG11      -0.0472
     26 C          -5.1212    1.6124   -6.5897 C.ar    1  LIG11       0.1219
     27 C          -6.1687    6.6368   -5.2438 C.3     1  LIG11       0.1267
     28 C         -10.9715    3.2301   -2.9942 C.ar    1  LIG11       0.0179
     29 C          -4.8665    8.4685   -4.6123 C.ar    1  LIG11       0.3180
     30 C          -4.3552    8.8043   -2.4134 C.ar    1  LIG11       0.0483
     31 C          -4.1240   10.5262   -3.9633 C.ar    1  LIG11       0.0483
     32 C          -4.0147   10.1154   -2.6554 C.ar    1  LIG11       0.0543
@<TRIPOS>BOND
     1     1    28    1
     2     2    32    1
     3     3     5    2
     4     3     6    2
     5     3     8    1
     6     3     9    1
     7     4    19    1
     8     4    23    1
     9     7    27    1
    10     7    29    1
    11     8    14    1
    12     9    16    1
    13    10    16   ar
    14    10    26   ar
    15    11    19   ar
    16    11    26   ar
    17    12    29   ar
    18    12    30   ar
    19    13    29   ar
    20    13    31   ar
    21    14    17    1
    22    15    16   ar
    23    15    18    1
    24    15    19   ar
    25    17    20    1
    26    18    21   ar
    27    18    22   ar
    28    21    24   ar
    29    22    25   ar
    30    23    27    1
    31    24    28   ar
    32    25    28   ar
    33    30    32   ar
    34    31    32   ar
@<TRIPOS>MOLECULE
../ET1/ET1_17-21_50CONFORMERS.pdb
 47 48 0 0 0
SMALL
GASTEIGER

@<TRIPOS>ATOM
      1  N         -5.0400   -0.0260   -1.4120 N.3    17  LEU17      -0.1231
      2  CA        -6.2700   -0.7830   -1.6990 C.3    17  LEU17       0.1693
      3  CB        -6.2190   -2.1170   -0.8960 C.3    17  LEU17       0.0284
      4  CG        -7.3800   -3.0070   -1.1050 C.3    17  LEU17       0.0019
      5  CD1       -7.3860   -3.4900   -2.5640 C.3    17  LEU17       0.0001
      6  CD2       -7.3430   -4.0760   -0.0430 C.3    17  LEU17       0.0001
      7  C         -7.5030    0.0560   -1.4220 C.2    17  LEU17       0.2592
      8  O         -8.5340   -0.0800   -2.0900 O.2    17  LEU17      -0.2718
      9  N         -7.4830    0.8690   -0.3710 N.am   18  ASP18      -0.1960
     10  CA        -8.6090    1.6770    0.1740 C.3    18  ASP18       0.1840
     11  CB        -9.4430    0.9030    1.2800 C.3    18  ASP18       0.1450
     12  CG       -10.6600    1.6150    1.8360 C.2    18  ASP18       0.3671
     13  OD1      -10.7720    1.7600    3.0590 O.co2  18  ASP18      -0.2456
     14  OD2      -11.5850    1.9260    1.0620 O.co2  18  ASP18      -0.2456
     15  C         -8.1600    3.0760    0.6810 C.2    18  ASP18       0.2622
     16  O         -8.6560    4.0670    0.2340 O.2    18  ASP18      -0.2715
     17  N         -7.3290    3.0850    1.7300 N.am   19  ILE19      -0.1963
     18  CA        -6.6050    4.3200    2.2320 C.3    19  ILE19       0.1727
     19  CB        -5.5470    3.9840    3.3090 C.3    19  ILE19       0.0290
     20  CG2       -4.9560    5.2630    3.9590 C.3    19  ILE19       0.0023
     21  CG1       -6.0260    3.0070    4.3510 C.3    19  ILE19       0.0022
     22  CD1       -7.3500    3.4430    4.9740 C.3    19  ILE19       0.0001
     23  C         -6.0170    5.2430    1.1510 C.2    19  ILE19       0.2616
     24  O         -6.2820    6.4660    1.2160 O.2    19  ILE19      -0.2715
     25  N         -5.2880    4.6200    0.2640 N.am   20  ILE20      -0.1963
     26  CA        -4.6340    5.3270   -0.8730 C.3    20  ILE20       0.1727
     27  CB        -3.1740    5.6250   -0.5010 C.3    20  ILE20       0.0290
     28  CG2       -2.9430    6.4710    0.7960 C.3    20  ILE20       0.0023
     29  CG1       -2.1960    4.4100   -0.4230 C.3    20  ILE20       0.0022
     30  CD1       -0.6690    4.8000   -0.3990 C.3    20  ILE20       0.0001
     31  C         -4.7190    4.6680   -2.2650 C.2    20  ILE20       0.2617
     32  O         -5.1500    3.4700   -2.4120 O.2    20  ILE20      -0.2715
     33  N         -4.3810    5.4790   -3.2470 N.am   21  TRP21      -0.1941
     34  CA        -4.7800    5.3270   -4.6380 C.3    21  TRP21       0.1982
     35  CB        -6.1600    5.9050   -4.9820 C.3    21  TRP21       0.0394
     36  CG        -7.2690    5.4400   -4.0860 C.3    21  TRP21       0.0475
     37  CD1       -7.7180    6.0320   -2.9590 C.3    21  TRP21       0.1166
     38  NE1       -8.7190    5.3870   -2.3980 N.pl3  21  TRP21      -0.2376
     39  CE2       -9.0240    4.2500   -3.0660 C.ar   21  TRP21       0.0614
     40  CZ2       -9.9610    3.2050   -2.9090 C.ar   21  TRP21       0.0158
     41  CH2      -10.0770    2.1920   -3.7900 C.ar   21  TRP21       0.0013
     42  CZ3       -9.2010    2.2250   -4.9010 C.ar   21  TRP21      -0.0002
     43  CE3       -8.2180    3.2070   -5.0950 C.ar   21  TRP21      -0.0030
     44  CD2       -8.1340    4.2600   -4.1610 C.ar   21  TRP21      -0.0059
     45  C         -3.7690    5.9550   -5.6300 C.2    21  TRP21       0.3842
     46  O         -3.4350    7.1820   -5.4290 O.co2  21  TRP21      -0.2437
     47  OXT       -3.2170    5.2800   -6.5300 O.co2  21  TRP21      -0.2437
@<TRIPOS>BOND
     1    40    41   ar
     2    40    39   ar
     3    41    42   ar
     4    39    38    1
     5    39    44   ar
     6    42    43   ar
     7    38    37    1
     8    43    44   ar
     9    44    36    1
    10    37    36    1
    11    36    35    1
    12    47    45   ar
    13     5     4    1
    14    35    34    1
    15    45    34    1
    16    45    46   ar
    17    34    33    1
    18     8     7    2
    19     4     6    1
    20     4     3    1
    21     2     3    1
    22     2     1    1
    23     2     7    1
    24     7     9   am
    25    33    31   am
    26    32    31    2
    27    31    26    1
    28     9    10    1
    29    10    11    1
    30    10    15    1
    31    26    27    1
    32    26    25    1
    33    11    12    1
    34    13    12   ar
    35    27    29    1
    36    27    28    1
    37    29    30    1
    38    16    15    2
    39    15    17   am
    40    12    14   ar
    41    25    23   am
    42    17    18    1
    43    23    24    2
    44    23    18    1
    45    18    19    1
    46    19    21    1
    47    19    20    1
    48    21    22    1
