@<TRIPOS>MOLECULE
../ET1/ET1_17-21_50CONFORMERS_NOBACKBONE.pdb
 26 23 0 0 0
SMALL
GASTEIGER

@<TRIPOS>ATOM
      1  CB        -6.0450   -2.2240   -1.9800 C.3    17  LEU17       0.0000
      2  CG        -7.2790   -3.0720   -2.2900 C.3    17  LEU17       0.0000
      3  CD1       -7.6320   -2.9190   -3.7420 C.3    17  LEU17       0.0000
      4  CD2       -6.9950   -4.5210   -1.9860 C.3    17  LEU17       0.0000
      5  CB        -8.9650    0.3820    1.2000 C.3    18  ASP18       0.1258
      6  CG       -10.2610    1.0350    1.7020 C.2    18  ASP18       0.3654
      7  OD1      -10.4730    1.2090    2.9030 O.co2  18  ASP18      -0.2456
      8  OD2      -11.1470    1.2530    0.8550 O.co2  18  ASP18      -0.2456
      9  CB        -5.0970    3.3260    3.3970 C.3    19  ILE19       0.0000
     10  CG2       -4.7090    4.5060    4.3340 C.3    19  ILE19       0.0000
     11  CG1       -5.3530    1.9900    4.2150 C.3    19  ILE19       0.0000
     12  CD1       -6.7200    1.9780    4.9740 C.3    19  ILE19       0.0000
     13  CB        -2.7260    5.5100   -0.0200 C.3    20  ILE20       0.0000
     14  CG2       -2.5240    6.0620    1.4180 C.3    20  ILE20       0.0000
     15  CG1       -1.9180    4.2010   -0.0440 C.3    20  ILE20       0.0000
     16  CD1       -0.4640    4.2590    0.0730 C.3    20  ILE20       0.0000
     17  CB        -5.9960    6.4580   -4.2760 C.3    21  TRP21       0.0066
     18  CG        -7.1020    5.6850   -3.5800 C.3    21  TRP21       0.0452
     19  CD1       -7.5860    5.8870   -2.2840 C.3    21  TRP21       0.1165
     20  NE1       -8.5970    4.9670   -2.1300 N.pl3  21  TRP21      -0.2376
     21  CE2       -8.8270    4.1960   -3.2250 C.ar   21  TRP21       0.0614
     22  CZ2       -9.7120    3.1020   -3.3810 C.ar   21  TRP21       0.0158
     23  CH2       -9.6000    2.3640   -4.5630 C.ar   21  TRP21       0.0013
     24  CZ3       -8.7130    2.8140   -5.5460 C.ar   21  TRP21      -0.0002
     25  CE3       -7.8160    3.8360   -5.3890 C.ar   21  TRP21      -0.0030
     26  CD2       -7.8100    4.5550   -4.1150 C.ar   21  TRP21      -0.0059
@<TRIPOS>BOND
     1    22    23   ar
     2    22    21   ar
     3    23    24   ar
     4    21    20    1
     5    21    26   ar
     6    24    25   ar
     7    20    19    1
     8    25    26   ar
     9    26    18    1
    10    19    18    1
    11    18    17    1
    12     3     2    1
    13     2     4    1
    14     2     1    1
    15     5     6    1
    16     7     6   ar
    17    13    15    1
    18    13    14    1
    19    15    16    1
    20     6     8   ar
    21     9    11    1
    22     9    10    1
    23    11    12    1
@<TRIPOS>MOLECULE
156690
 38 41 0 0 0
SMALL
GASTEIGER

@<TRIPOS>ATOM
      1 S          -6.5245    3.0627   -1.1981 S.O2    1  LIG11       0.0741
      2 O          -9.8837   -2.6316   -4.2520 O.2     1  LIG11      -0.2756
      3 O          -6.2479    1.6839   -1.5187 O.2     1  LIG11      -0.1499
      4 O          -6.1966    4.1472   -2.1049 O.2     1  LIG11      -0.1499
      5 O          -8.4433    1.2704   -7.9524 O.2     1  LIG11      -0.4436
      6 O          -3.7824    1.1036    1.8281 O.2     1  LIG11      -0.3578
      7 N         -10.4983   -0.4656   -3.8601 N.am    1  LIG11      -0.3002
      8 N          -5.7102    3.5433    0.2109 N.pl3   1  LIG11      -0.1965
      9 N          -7.4264    3.2722   -8.1861 N.ar    1  LIG11      -0.2175
     10 N          -5.0019    1.6379    1.4573 N.ar    1  LIG11      -0.0614
     11 C          -7.3305   -2.4457   -2.8328 C.3     1  LIG11      -0.0295
     12 C          -8.2227   -1.2307   -3.1872 C.3     1  LIG11       0.0290
     13 C          -6.0387   -1.8971   -2.1878 C.3     1  LIG11      -0.0596
     14 C          -8.0283   -3.3562   -1.8082 C.3     1  LIG11      -0.0596
     15 C          -6.9293   -3.2568   -4.0756 C.3     1  LIG11      -0.0596
     16 C          -9.5984   -1.5266   -3.7920 C.2     1  LIG11       0.2161
     17 C         -10.3265    0.8108   -3.1644 C.3     1  LIG11       0.0400
     18 C          -9.4799    1.8504   -3.8845 C.ar    1  LIG11      -0.0216
     19 C          -9.0381    3.0221   -3.2090 C.ar    1  LIG11      -0.0113
     20 C          -9.2629    3.2314   -1.7588 C.ar    1  LIG11       0.0090
     21 C         -11.7910   -0.6891   -4.4939 C.3     1  LIG11       0.0035
     22 C          -9.1822    1.6963   -5.2585 C.ar    1  LIG11      -0.0442
     23 C          -8.2519    3.1855   -0.7692 C.ar    1  LIG11       0.1162
     24 C          -8.3951    4.0159   -3.9643 C.ar    1  LIG11      -0.0529
     25 C          -8.4593    2.6582   -5.9764 C.ar    1  LIG11       0.0372
     26 C          -8.0889    3.8297   -5.3153 C.ar    1  LIG11      -0.0489
     27 C         -10.5908    3.4229   -1.3161 C.ar    1  LIG11      -0.0521
     28 C          -8.5859    3.2370    0.5989 C.ar    1  LIG11      -0.0345
     29 C         -10.9127    3.4852    0.0410 C.ar    1  LIG11      -0.0611
     30 C          -8.0879    2.4642   -7.3760 C.ar    1  LIG11       0.2271
     31 C          -9.9126    3.3754    0.9981 C.ar    1  LIG11      -0.0599
     32 C          -4.7153    2.6991    0.7012 C.ar    1  LIG11       0.1837
     33 C          -3.3156    2.9045    0.5848 C.ar    1  LIG11       0.0342
     34 C          -2.7800    1.8617    1.3118 C.ar    1  LIG11       0.1390
     35 C          -2.5753    3.9556   -0.1484 C.3     1  LIG11      -0.0330
     36 C          -7.9498    1.3484   -9.2185 C.ar    1  LIG11       0.1125
     37 C          -7.3323    2.5642   -9.3573 C.ar    1  LIG11       0.0663
     38 C          -1.4021    1.4335    1.6207 C.3     1  LIG11      -0.0034
@<TRIPOS>BOND
     1     1     3    2
     2     1     4    2
     3     1     8    1
     4     1    23    1
     5     2    16    2
     6     5    30   ar
     7     5    36   ar
     8     6    10   ar
     9     6    34   ar
    10     7    16   am
    11     7    17    1
    12     7    21    1
    13     8    32    1
    14     9    30   ar
    15     9    37   ar
    16    10    32   ar
    17    11    12    1
    18    11    13    1
    19    11    14    1
    20    11    15    1
    21    12    16    1
    22    17    18    1
    23    18    19   ar
    24    18    22   ar
    25    19    20    1
    26    19    24   ar
    27    20    23   ar
    28    20    27   ar
    29    22    25   ar
    30    23    28   ar
    31    24    26   ar
    32    25    26   ar
    33    25    30    1
    34    27    29   ar
    35    28    31   ar
    36    29    31   ar
    37    32    33   ar
    38    33    34   ar
    39    33    35    1
    40    34    38    1
    41    36    37   ar
@<TRIPOS>MOLECULE
../ET1/ET1_17-21_50CONFORMERS.pdb
 47 48 0 0 0
SMALL
GASTEIGER

@<TRIPOS>ATOM
      1  N         -4.8850   -0.0880   -1.8400 N.3    17  LEU17      -0.1231
      2  CA        -6.1290   -0.7220   -2.2700 C.3    17  LEU17       0.1693
      3  CB        -6.0450   -2.2240   -1.9800 C.3    17  LEU17       0.0284
      4  CG        -7.2790   -3.0720   -2.2900 C.3    17  LEU17       0.0019
      5  CD1       -7.6320   -2.9190   -3.7420 C.3    17  LEU17       0.0001
      6  CD2       -6.9950   -4.5210   -1.9860 C.3    17  LEU17       0.0001
      7  C         -7.3700   -0.0260   -1.7540 C.2    17  LEU17       0.2592
      8  O         -8.3970    0.0460   -2.4160 O.2    17  LEU17      -0.2718
      9  N         -7.2350    0.5080   -0.5260 N.am   18  ASP18      -0.1960
     10  CA        -8.2590    1.2890    0.1780 C.3    18  ASP18       0.1840
     11  CB        -8.9650    0.3820    1.2000 C.3    18  ASP18       0.1450
     12  CG       -10.2610    1.0350    1.7020 C.2    18  ASP18       0.3671
     13  OD1      -10.4730    1.2090    2.9030 O.co2  18  ASP18      -0.2456
     14  OD2      -11.1470    1.2530    0.8550 O.co2  18  ASP18      -0.2456
     15  C         -7.7020    2.5680    0.7980 C.2    18  ASP18       0.2622
     16  O         -8.4520    3.5520    0.7850 O.2    18  ASP18      -0.2715
     17  N         -6.5770    2.4600    1.5110 N.am   19  ILE19      -0.1963
     18  CA        -6.2160    3.6500    2.4080 C.3    19  ILE19       0.1727
     19  CB        -5.0970    3.3260    3.3970 C.3    19  ILE19       0.0290
     20  CG2       -4.7090    4.5060    4.3340 C.3    19  ILE19       0.0023
     21  CG1       -5.3530    1.9900    4.2150 C.3    19  ILE19       0.0022
     22  CD1       -6.7200    1.9780    4.9740 C.3    19  ILE19       0.0001
     23  C         -5.7170    4.8170    1.5180 C.2    19  ILE19       0.2616
     24  O         -6.0380    5.9740    1.8980 O.2    19  ILE19      -0.2715
     25  N         -4.8040    4.4900    0.5620 N.am   20  ILE20      -0.1963
     26  CA        -4.2090    5.3760   -0.3770 C.3    20  ILE20       0.1727
     27  CB        -2.7260    5.5100   -0.0200 C.3    20  ILE20       0.0290
     28  CG2       -2.5240    6.0620    1.4180 C.3    20  ILE20       0.0023
     29  CG1       -1.9180    4.2010   -0.0440 C.3    20  ILE20       0.0022
     30  CD1       -0.4640    4.2590    0.0730 C.3    20  ILE20       0.0001
     31  C         -4.3620    4.9380   -1.8210 C.2    20  ILE20       0.2617
     32  O         -4.4020    3.8000   -2.1990 O.2    20  ILE20      -0.2715
     33  N         -4.3280    5.9610   -2.6340 N.am   21  TRP21      -0.1941
     34  CA        -4.5790    6.0340   -4.0320 C.3    21  TRP21       0.1982
     35  CB        -5.9960    6.4580   -4.2760 C.3    21  TRP21       0.0394
     36  CG        -7.1020    5.6850   -3.5800 C.3    21  TRP21       0.0475
     37  CD1       -7.5860    5.8870   -2.2840 C.3    21  TRP21       0.1166
     38  NE1       -8.5970    4.9670   -2.1300 N.pl3  21  TRP21      -0.2376
     39  CE2       -8.8270    4.1960   -3.2250 C.ar   21  TRP21       0.0614
     40  CZ2       -9.7120    3.1020   -3.3810 C.ar   21  TRP21       0.0158
     41  CH2       -9.6000    2.3640   -4.5630 C.ar   21  TRP21       0.0013
     42  CZ3       -8.7130    2.8140   -5.5460 C.ar   21  TRP21      -0.0002
     43  CE3       -7.8160    3.8360   -5.3890 C.ar   21  TRP21      -0.0030
     44  CD2       -7.8100    4.5550   -4.1150 C.ar   21  TRP21      -0.0059
     45  C         -3.6280    6.9660   -4.7840 C.2    21  TRP21       0.3842
     46  O         -3.1330    6.6150   -5.9110 O.co2  21  TRP21      -0.2437
     47  OXT       -3.2290    7.9480   -4.1900 O.co2  21  TRP21      -0.2437
@<TRIPOS>BOND
     1    40    41   ar
     2    40    39   ar
     3    41    42   ar
     4    39    38    1
     5    39    44   ar
     6    42    43   ar
     7    38    37    1
     8    43    44   ar
     9    44    36    1
    10    37    36    1
    11    36    35    1
    12    47    45   ar
    13     5     4    1
    14    35    34    1
    15    45    34    1
    16    45    46   ar
    17    34    33    1
    18     8     7    2
    19     4     6    1
    20     4     3    1
    21     2     3    1
    22     2     1    1
    23     2     7    1
    24     7     9   am
    25    33    31   am
    26    32    31    2
    27    31    26    1
    28     9    10    1
    29    10    11    1
    30    10    15    1
    31    26    27    1
    32    26    25    1
    33    11    12    1
    34    13    12   ar
    35    27    29    1
    36    27    28    1
    37    29    30    1
    38    16    15    2
    39    15    17   am
    40    12    14   ar
    41    25    23   am
    42    17    18    1
    43    23    24    2
    44    23    18    1
    45    18    19    1
    46    19    21    1
    47    19    20    1
    48    21    22    1
