@<TRIPOS>MOLECULE
../ET1/ET1_17-21_50CONFORMERS_NOBACKBONE.pdb
 26 23 0 0 0
SMALL
GASTEIGER

@<TRIPOS>ATOM
      1  CB        -6.8980   -2.1280   -1.2680 C.3    17  LEU17       0.0000
      2  CG        -8.1640   -2.8730   -1.7710 C.3    17  LEU17       0.0000
      3  CD1       -8.0740   -3.1810   -3.2580 C.3    17  LEU17       0.0000
      4  CD2       -8.4050   -4.1840   -0.9770 C.3    17  LEU17       0.0000
      5  CB        -9.9720    0.7540    0.9230 C.3    18  ASP18       0.1258
      6  CG       -11.0880    1.6940    1.4170 C.2    18  ASP18       0.3654
      7  OD1      -11.8290    2.2550    0.6360 O.co2  18  ASP18      -0.2456
      8  OD2      -11.2930    1.7480    2.6750 O.co2  18  ASP18      -0.2456
      9  CB        -5.5350    3.1570    3.4290 C.3    19  ILE19       0.0000
     10  CG2       -4.9350    4.2530    4.3350 C.3    19  ILE19       0.0000
     11  CG1       -6.2270    2.1840    4.3560 C.3    19  ILE19       0.0000
     12  CD1       -7.2410    2.6480    5.4570 C.3    19  ILE19       0.0000
     13  CB        -3.2460    5.6920   -0.4630 C.3    20  ILE20       0.0000
     14  CG2       -3.0130    6.2240    0.9320 C.3    20  ILE20       0.0000
     15  CG1       -2.4170    4.4290   -0.6100 C.3    20  ILE20       0.0000
     16  CD1       -0.9050    4.5330   -0.5210 C.3    20  ILE20       0.0000
     17  CB        -6.4030    6.6360   -4.9390 C.3    21  TRP21       0.0066
     18  CG        -7.5670    6.0040   -4.2330 C.3    21  TRP21       0.0452
     19  CD1       -8.1070    6.4780   -3.0840 C.3    21  TRP21       0.1165
     20  NE1       -9.1370    5.6500   -2.6460 N.pl3  21  TRP21      -0.2376
     21  CE2       -9.1920    4.4550   -3.3730 C.ar   21  TRP21       0.0614
     22  CZ2      -10.0470    3.3490   -3.3650 C.ar   21  TRP21       0.0158
     23  CH2       -9.9760    2.4460   -4.4430 C.ar   21  TRP21       0.0013
     24  CZ3       -9.1350    2.7470   -5.4940 C.ar   21  TRP21      -0.0002
     25  CE3       -8.2410    3.7610   -5.4190 C.ar   21  TRP21      -0.0030
     26  CD2       -8.2890    4.6970   -4.3670 C.ar   21  TRP21      -0.0059
@<TRIPOS>BOND
     1    22    23   ar
     2    22    21   ar
     3    23    24   ar
     4    21    20    1
     5    21    26   ar
     6    24    25   ar
     7    20    19    1
     8    25    26   ar
     9    26    18    1
    10    19    18    1
    11    18    17    1
    12     3     2    1
    13     2     4    1
    14     2     1    1
    15     5     6    1
    16     7     6   ar
    17    13    15    1
    18    13    14    1
    19    15    16    1
    20     6     8   ar
    21     9    11    1
    22     9    10    1
    23    11    12    1
@<TRIPOS>MOLECULE
*****
 39 42 0 0 0
SMALL
GASTEIGER

@<TRIPOS>ATOM
      1 C          -9.6843    9.3352   -2.4884 C.ar    1  LIG11       0.0483
      2 C          -8.6512   10.2138   -2.7116 C.ar    1  LIG11       0.0543
      3 C          -8.1230   10.1977   -3.9816 C.ar    1  LIG11       0.0483
      4 N          -8.5686    9.3869   -4.9667 N.ar    1  LIG11      -0.2022
      5 N         -10.1658    8.4988   -3.4318 N.ar    1  LIG11      -0.2022
      6 C          -9.0024    3.1038   -2.6657 C.ar    1  LIG11      -0.0504
      7 C          -7.8598    3.3761   -3.4212 C.ar    1  LIG11      -0.0583
      8 C          -7.9426    3.5111   -4.8111 C.ar    1  LIG11      -0.0535
      9 C          -9.1684    3.3816   -5.4846 C.ar    1  LIG11      -0.0094
     10 C         -10.2974    3.0461   -4.7169 C.ar    1  LIG11      -0.0535
     11 C         -10.2154    2.9011   -3.3279 C.ar    1  LIG11      -0.0583
     12 C          -9.7115   -1.5126   -4.2812 C.ar    1  LIG11      -0.0561
     13 C          -9.9392   -0.9356   -5.5346 C.ar    1  LIG11      -0.0348
     14 C          -8.9030   -0.2665   -6.1814 C.ar    1  LIG11       0.1086
     15 C          -7.6454   -0.1768   -5.5895 C.ar    1  LIG11      -0.0348
     16 C          -7.4275   -0.7536   -4.3351 C.ar    1  LIG11      -0.0561
     17 C          -8.2051   -2.1081   -2.2837 C.3     1  LIG11       0.0132
     18 C          -8.4543   -1.4275   -3.6477 C.ar    1  LIG11      -0.0394
     19 C          -6.9594   -1.5538   -1.5508 C.3     1  LIG11      -0.0537
     20 C          -9.4121   -1.9571   -1.3133 C.3     1  LIG11       0.0533
     21 C          -7.9759   -3.6115   -2.5463 C.3     1  LIG11      -0.0537
     22 O          -9.6639   -0.5972   -0.9699 O.3     1  LIG11      -0.3942
     23 S          -9.1630    0.3756   -7.8129 S.O2    1  LIG11       0.0735
     24 O          -9.7905   -0.6853   -8.5753 O.2     1  LIG11      -0.1499
     25 O          -7.9295    0.9888   -8.2545 O.2     1  LIG11      -0.1499
     26 N         -10.3581    1.5473   -7.5650 N.pl3   1  LIG11      -0.1988
     27 C          -9.2977    3.6858   -6.9231 C.ar    1  LIG11       0.0847
     28 C          -8.8987    4.8977   -7.4794 C.ar    1  LIG11       0.2276
     29 N          -9.0876    5.2581   -8.7669 N.ar    1  LIG11      -0.2008
     30 C          -9.7194    4.3659   -9.5337 C.ar    1  LIG11       0.1219
     31 N         -10.1760    3.1769   -9.1354 N.ar    1  LIG11      -0.2186
     32 C          -9.9329    2.8715   -7.8491 C.ar    1  LIG11       0.1524
     33 C          -8.9320    3.0217   -1.1696 C.3     1  LIG11      -0.0397
     34 O          -8.2533    5.7935   -6.6496 O.3     1  LIG11      -0.4724
     35 C          -8.2247    7.1531   -7.0917 C.3     1  LIG11       0.1252
     36 C          -9.5767    7.8466   -6.8932 C.3     1  LIG11       0.1267
     37 O         -10.0856    7.6866   -5.5666 O.3     1  LIG11      -0.4590
     38 C          -9.5783    8.5622   -4.6370 C.ar    1  LIG11       0.3180
     39 BR         -8.0060   11.3613   -1.3742 Br      1  LIG11      -0.0472
@<TRIPOS>BOND
     1     1     2   ar
     2     2     3   ar
     3     2    39    1
     4     3     4   ar
     5     4    38   ar
     6     5     1   ar
     7     6     7   ar
     8     6    33    1
     9     7     8   ar
    10     8     9   ar
    11     9    10   ar
    12    10    11   ar
    13    11     6   ar
    14    12    13   ar
    15    13    14   ar
    16    14    15   ar
    17    15    16   ar
    18    16    18   ar
    19    17    18    1
    20    17    21    1
    21    17    20    1
    22    17    19    1
    23    18    12   ar
    24    20    22    1
    25    23    26    1
    26    23    25    2
    27    23    24    2
    28    23    14    1
    29    26    32    1
    30    27    28   ar
    31    27     9    1
    32    28    29   ar
    33    29    30   ar
    34    30    31   ar
    35    31    32   ar
    36    32    27   ar
    37    34    35    1
    38    34    28    1
    39    35    36    1
    40    36    37    1
    41    37    38    1
    42    38     5   ar
@<TRIPOS>MOLECULE
../ET1/ET1_17-21_50CONFORMERS.pdb
 47 48 0 0 0
SMALL
GASTEIGER

@<TRIPOS>ATOM
      1  N         -5.4310   -0.0720   -1.3630 N.3    17  LEU17      -0.1231
      2  CA        -6.6840   -0.6750   -1.8500 C.3    17  LEU17       0.1693
      3  CB        -6.8980   -2.1280   -1.2680 C.3    17  LEU17       0.0284
      4  CG        -8.1640   -2.8730   -1.7710 C.3    17  LEU17       0.0019
      5  CD1       -8.0740   -3.1810   -3.2580 C.3    17  LEU17       0.0001
      6  CD2       -8.4050   -4.1840   -0.9770 C.3    17  LEU17       0.0001
      7  C         -7.8440    0.2660   -1.5210 C.2    17  LEU17       0.2592
      8  O         -8.6730    0.5560   -2.3370 O.2    17  LEU17      -0.2718
      9  N         -7.8870    0.6840   -0.3140 N.am   18  ASP18      -0.1960
     10  CA        -8.8950    1.6140    0.1630 C.3    18  ASP18       0.1840
     11  CB        -9.9720    0.7540    0.9230 C.3    18  ASP18       0.1450
     12  CG       -11.0880    1.6940    1.4170 C.2    18  ASP18       0.3671
     13  OD1      -11.8290    2.2550    0.6360 O.co2  18  ASP18      -0.2456
     14  OD2      -11.2930    1.7480    2.6750 O.co2  18  ASP18      -0.2456
     15  C         -8.3780    2.8340    0.9880 C.2    18  ASP18       0.2622
     16  O         -8.9170    3.9280    1.0090 O.2    18  ASP18      -0.2715
     17  N         -7.1920    2.6000    1.6560 N.am   19  ILE19      -0.1963
     18  CA        -6.5640    3.6920    2.3840 C.3    19  ILE19       0.1727
     19  CB        -5.5350    3.1570    3.4290 C.3    19  ILE19       0.0290
     20  CG2       -4.9350    4.2530    4.3350 C.3    19  ILE19       0.0023
     21  CG1       -6.2270    2.1840    4.3560 C.3    19  ILE19       0.0022
     22  CD1       -7.2410    2.6480    5.4570 C.3    19  ILE19       0.0001
     23  C         -5.9480    4.7470    1.4420 C.2    19  ILE19       0.2616
     24  O         -6.0440    5.9240    1.7900 O.2    19  ILE19      -0.2715
     25  N         -5.3690    4.4450    0.2810 N.am   20  ILE20      -0.1963
     26  CA        -4.7490    5.5160   -0.6280 C.3    20  ILE20       0.1727
     27  CB        -3.2460    5.6920   -0.4630 C.3    20  ILE20       0.0290
     28  CG2       -3.0130    6.2240    0.9320 C.3    20  ILE20       0.0023
     29  CG1       -2.4170    4.4290   -0.6100 C.3    20  ILE20       0.0022
     30  CD1       -0.9050    4.5330   -0.5210 C.3    20  ILE20       0.0001
     31  C         -5.1140    5.2400   -2.0760 C.2    20  ILE20       0.2617
     32  O         -5.5940    4.1460   -2.3940 O.2    20  ILE20      -0.2715
     33  N         -4.8180    6.1280   -3.0580 N.am   21  TRP21      -0.1941
     34  CA        -5.0610    5.9900   -4.5210 C.3    21  TRP21       0.1982
     35  CB        -6.4030    6.6360   -4.9390 C.3    21  TRP21       0.0394
     36  CG        -7.5670    6.0040   -4.2330 C.3    21  TRP21       0.0475
     37  CD1       -8.1070    6.4780   -3.0840 C.3    21  TRP21       0.1166
     38  NE1       -9.1370    5.6500   -2.6460 N.pl3  21  TRP21      -0.2376
     39  CE2       -9.1920    4.4550   -3.3730 C.ar   21  TRP21       0.0614
     40  CZ2      -10.0470    3.3490   -3.3650 C.ar   21  TRP21       0.0158
     41  CH2       -9.9760    2.4460   -4.4430 C.ar   21  TRP21       0.0013
     42  CZ3       -9.1350    2.7470   -5.4940 C.ar   21  TRP21      -0.0002
     43  CE3       -8.2410    3.7610   -5.4190 C.ar   21  TRP21      -0.0030
     44  CD2       -8.2890    4.6970   -4.3670 C.ar   21  TRP21      -0.0059
     45  C         -3.9140    6.5840   -5.4160 C.2    21  TRP21       0.3842
     46  O         -3.3530    7.6760   -5.1620 O.co2  21  TRP21      -0.2437
     47  OXT       -3.4650    5.8790   -6.3210 O.co2  21  TRP21      -0.2437
@<TRIPOS>BOND
     1    40    41   ar
     2    40    39   ar
     3    41    42   ar
     4    39    38    1
     5    39    44   ar
     6    42    43   ar
     7    38    37    1
     8    43    44   ar
     9    44    36    1
    10    37    36    1
    11    36    35    1
    12    47    45   ar
    13     5     4    1
    14    35    34    1
    15    45    34    1
    16    45    46   ar
    17    34    33    1
    18     8     7    2
    19     4     6    1
    20     4     3    1
    21     2     3    1
    22     2     1    1
    23     2     7    1
    24     7     9   am
    25    33    31   am
    26    32    31    2
    27    31    26    1
    28     9    10    1
    29    10    11    1
    30    10    15    1
    31    26    27    1
    32    26    25    1
    33    11    12    1
    34    13    12   ar
    35    27    29    1
    36    27    28    1
    37    29    30    1
    38    16    15    2
    39    15    17   am
    40    12    14   ar
    41    25    23   am
    42    17    18    1
    43    23    24    2
    44    23    18    1
    45    18    19    1
    46    19    21    1
    47    19    20    1
    48    21    22    1
