@<TRIPOS>MOLECULE
../ET1/ET1_17-21_50CONFORMERS_NOBACKBONE.pdb
 26 23 0 0 0
SMALL
GASTEIGER

@<TRIPOS>ATOM
      1  CB        -5.9400   -2.0450   -1.1720 C.3    17  LEU17       0.0000
      2  CG        -7.3480   -2.7230   -1.2450 C.3    17  LEU17       0.0000
      3  CD1       -7.7650   -3.2050   -2.6260 C.3    17  LEU17       0.0000
      4  CD2       -7.3690   -3.7850   -0.1150 C.3    17  LEU17       0.0000
      5  CB        -9.2180    0.9140    1.4810 C.3    18  ASP18       0.1258
      6  CG       -10.2990    1.9900    1.8220 C.2    18  ASP18       0.3654
      7  OD1      -11.2830    2.1470    1.0850 O.co2  18  ASP18      -0.2456
      8  OD2      -10.1960    2.7130    2.8240 O.co2  18  ASP18      -0.2456
      9  CB        -5.1500    3.9810    3.1070 C.3    19  ILE19       0.0000
     10  CG2       -4.8530    5.2880    3.9490 C.3    19  ILE19       0.0000
     11  CG1       -5.3540    2.7650    4.0520 C.3    19  ILE19       0.0000
     12  CD1       -6.7440    2.6910    4.7780 C.3    19  ILE19       0.0000
     13  CB        -2.8150    5.5810   -0.8870 C.3    20  ILE20       0.0000
     14  CG2       -2.5270    6.1070    0.5620 C.3    20  ILE20       0.0000
     15  CG1       -1.9460    4.3700   -1.2540 C.3    20  ILE20       0.0000
     16  CD1       -0.4660    4.7680   -1.0890 C.3    20  ILE20       0.0000
     17  CB        -6.5670    5.2890   -5.1920 C.3    21  TRP21       0.0066
     18  CG        -7.6370    4.5460   -4.4460 C.3    21  TRP21       0.0452
     19  CD1       -7.9760    4.8320   -3.1780 C.3    21  TRP21       0.1165
     20  NE1       -8.9670    3.9650   -2.8200 N.pl3  21  TRP21      -0.2376
     21  CE2       -9.3160    3.0730   -3.8500 C.ar   21  TRP21       0.0614
     22  CZ2      -10.2780    1.9910   -3.9100 C.ar   21  TRP21       0.0158
     23  CH2      -10.3530    1.2810   -5.1340 C.ar   21  TRP21       0.0013
     24  CZ3       -9.5340    1.6440   -6.1950 C.ar   21  TRP21      -0.0002
     25  CE3       -8.6260    2.7510   -6.1090 C.ar   21  TRP21      -0.0030
     26  CD2       -8.4790    3.4760   -4.8900 C.ar   21  TRP21      -0.0059
@<TRIPOS>BOND
     1    22    23   ar
     2    22    21   ar
     3    23    24   ar
     4    21    20    1
     5    21    26   ar
     6    24    25   ar
     7    20    19    1
     8    25    26   ar
     9    26    18    1
    10    19    18    1
    11    18    17    1
    12     3     2    1
    13     2     4    1
    14     2     1    1
    15     5     6    1
    16     7     6   ar
    17    13    15    1
    18    13    14    1
    19    15    16    1
    20     6     8   ar
    21     9    11    1
    22     9    10    1
    23    11    12    1
@<TRIPOS>MOLECULE
*****
 39 42 0 0 0
SMALL
GASTEIGER

@<TRIPOS>ATOM
      1 C          -2.2394   -3.5204    0.9808 C.ar    1  LIG11       0.0483
      2 C          -2.8109   -4.6900    1.4263 C.ar    1  LIG11       0.0543
      3 C          -4.1831   -4.7477    1.3504 C.ar    1  LIG11       0.0483
      4 N          -4.9445   -3.7441    0.8659 N.ar    1  LIG11      -0.2022
      5 N          -2.9500   -2.4840    0.4873 N.ar    1  LIG11      -0.2022
      6 C         -12.4880   -3.2538   -2.3147 C.ar    1  LIG11      -0.0504
      7 C         -11.7238   -2.2524   -1.7163 C.ar    1  LIG11      -0.0583
      8 C         -10.6545   -1.6639   -2.4062 C.ar    1  LIG11      -0.0535
      9 C         -10.2911   -2.0686   -3.7056 C.ar    1  LIG11      -0.0094
     10 C         -11.1017   -3.0529   -4.3002 C.ar    1  LIG11      -0.0535
     11 C         -12.1905   -3.6235   -3.6265 C.ar    1  LIG11      -0.0583
     12 C          -9.6134    2.7124   -4.0785 C.ar    1  LIG11      -0.0561
     13 C         -10.3901    1.7205   -4.6812 C.ar    1  LIG11      -0.0348
     14 C         -10.1370    1.3607   -6.0021 C.ar    1  LIG11       0.1086
     15 C          -9.1591    2.0236   -6.7426 C.ar    1  LIG11      -0.0348
     16 C          -8.3843    3.0140   -6.1294 C.ar    1  LIG11      -0.0561
     17 C          -7.7254    4.4349   -4.0657 C.3     1  LIG11       0.0132
     18 C          -8.5822    3.3689   -4.7821 C.ar    1  LIG11      -0.0394
     19 C          -7.0301    3.7825   -2.8475 C.3     1  LIG11      -0.0537
     20 C          -8.6239    5.5991   -3.5638 C.3     1  LIG11       0.0533
     21 C          -6.6097    5.0352   -4.9526 C.3     1  LIG11      -0.0537
     22 O          -9.2202    6.3187   -4.6404 O.3     1  LIG11      -0.3942
     23 S         -11.0615    0.0295   -6.7379 S.O2    1  LIG11       0.0735
     24 O         -12.2070   -0.2253   -5.8934 O.2     1  LIG11      -0.1499
     25 O         -11.2373    0.3445   -8.1416 O.2     1  LIG11      -0.1499
     26 N         -10.0596   -1.3337   -6.6918 N.pl3   1  LIG11      -0.1988
     27 C          -9.0849   -1.5362   -4.3956 C.ar    1  LIG11       0.0847
     28 C          -7.8751   -1.2669   -3.7494 C.ar    1  LIG11       0.2276
     29 N          -6.7434   -0.8651   -4.3657 N.ar    1  LIG11      -0.2008
     30 C          -6.7962   -0.7317   -5.6870 C.ar    1  LIG11       0.1219
     31 N          -7.8757   -0.9381   -6.4349 N.ar    1  LIG11      -0.2186
     32 C          -8.9839   -1.3106   -5.7671 C.ar    1  LIG11       0.1524
     33 C         -13.6378   -3.8813   -1.5848 C.3     1  LIG11      -0.0397
     34 O          -7.7965   -1.4935   -2.3905 O.3     1  LIG11      -0.4724
     35 C          -6.6385   -0.9918   -1.7189 C.3     1  LIG11       0.1252
     36 C          -6.2019   -2.0325   -0.6953 C.3     1  LIG11       0.1267
     37 O          -4.9834   -1.6004   -0.0934 O.3     1  LIG11      -0.4590
     38 C          -4.2793   -2.6553    0.4404 C.ar    1  LIG11       0.3180
     39 BR         -1.7870   -6.1159    2.0888 Br      1  LIG11      -0.0472
@<TRIPOS>BOND
     1     1     2   ar
     2     2     3   ar
     3     2    39    1
     4     3     4   ar
     5     4    38   ar
     6     5     1   ar
     7     6     7   ar
     8     6    33    1
     9     7     8   ar
    10     8     9   ar
    11     9    10   ar
    12    10    11   ar
    13    11     6   ar
    14    12    13   ar
    15    13    14   ar
    16    14    15   ar
    17    15    16   ar
    18    16    18   ar
    19    17    18    1
    20    17    21    1
    21    17    20    1
    22    17    19    1
    23    18    12   ar
    24    20    22    1
    25    23    26    1
    26    23    25    2
    27    23    24    2
    28    23    14    1
    29    26    32    1
    30    27    28   ar
    31    27     9    1
    32    28    29   ar
    33    29    30   ar
    34    30    31   ar
    35    31    32   ar
    36    32    27   ar
    37    34    35    1
    38    34    28    1
    39    35    36    1
    40    36    37    1
    41    37    38    1
    42    38     5   ar
@<TRIPOS>MOLECULE
../ET1/ET1_17-21_50CONFORMERS.pdb
 47 48 0 0 0
SMALL
GASTEIGER

@<TRIPOS>ATOM
      1  N         -4.7170    0.0040   -1.5390 N.3    17  LEU17      -0.1231
      2  CA        -5.9340   -0.7030   -1.8900 C.3    17  LEU17       0.1693
      3  CB        -5.9400   -2.0450   -1.1720 C.3    17  LEU17       0.0284
      4  CG        -7.3480   -2.7230   -1.2450 C.3    17  LEU17       0.0019
      5  CD1       -7.7650   -3.2050   -2.6260 C.3    17  LEU17       0.0001
      6  CD2       -7.3690   -3.7850   -0.1150 C.3    17  LEU17       0.0001
      7  C         -7.2350    0.1710   -1.5190 C.2    17  LEU17       0.2592
      8  O         -8.0100    0.4870   -2.4960 O.2    17  LEU17      -0.2718
      9  N         -7.3530    0.5320   -0.2260 N.am   18  ASP18      -0.1960
     10  CA        -8.3460    1.4470    0.3660 C.3    18  ASP18       0.1840
     11  CB        -9.2180    0.9140    1.4810 C.3    18  ASP18       0.1450
     12  CG       -10.2990    1.9900    1.8220 C.2    18  ASP18       0.3671
     13  OD1      -11.2830    2.1470    1.0850 O.co2  18  ASP18      -0.2456
     14  OD2      -10.1960    2.7130    2.8240 O.co2  18  ASP18      -0.2456
     15  C         -7.8310    2.7860    0.6880 C.2    18  ASP18       0.2622
     16  O         -8.4890    3.8060    0.4240 O.2    18  ASP18      -0.2715
     17  N         -6.7010    2.9100    1.4090 N.am   19  ILE19      -0.1963
     18  CA        -6.2450    4.1960    2.0090 C.3    19  ILE19       0.1727
     19  CB        -5.1500    3.9810    3.1070 C.3    19  ILE19       0.0290
     20  CG2       -4.8530    5.2880    3.9490 C.3    19  ILE19       0.0023
     21  CG1       -5.3540    2.7650    4.0520 C.3    19  ILE19       0.0022
     22  CD1       -6.7440    2.6910    4.7780 C.3    19  ILE19       0.0001
     23  C         -5.7120    5.0450    0.8620 C.2    19  ILE19       0.2616
     24  O         -6.2150    6.1830    0.7060 O.2    19  ILE19      -0.2715
     25  N         -4.8280    4.5440    0.0700 N.am   20  ILE20      -0.1963
     26  CA        -4.3100    5.2660   -1.0930 C.3    20  ILE20       0.1727
     27  CB        -2.8150    5.5810   -0.8870 C.3    20  ILE20       0.0290
     28  CG2       -2.5270    6.1070    0.5620 C.3    20  ILE20       0.0023
     29  CG1       -1.9460    4.3700   -1.2540 C.3    20  ILE20       0.0022
     30  CD1       -0.4660    4.7680   -1.0890 C.3    20  ILE20       0.0001
     31  C         -4.6280    4.5880   -2.4050 C.2    20  ILE20       0.2617
     32  O         -4.6580    3.3760   -2.5120 O.2    20  ILE20      -0.2715
     33  N         -4.8020    5.3980   -3.4870 N.am   21  TRP21      -0.1941
     34  CA        -5.0960    5.0300   -4.8910 C.3    21  TRP21       0.1982
     35  CB        -6.5670    5.2890   -5.1920 C.3    21  TRP21       0.0394
     36  CG        -7.6370    4.5460   -4.4460 C.3    21  TRP21       0.0475
     37  CD1       -7.9760    4.8320   -3.1780 C.3    21  TRP21       0.1166
     38  NE1       -8.9670    3.9650   -2.8200 N.pl3  21  TRP21      -0.2376
     39  CE2       -9.3160    3.0730   -3.8500 C.ar   21  TRP21       0.0614
     40  CZ2      -10.2780    1.9910   -3.9100 C.ar   21  TRP21       0.0158
     41  CH2      -10.3530    1.2810   -5.1340 C.ar   21  TRP21       0.0013
     42  CZ3       -9.5340    1.6440   -6.1950 C.ar   21  TRP21      -0.0002
     43  CE3       -8.6260    2.7510   -6.1090 C.ar   21  TRP21      -0.0030
     44  CD2       -8.4790    3.4760   -4.8900 C.ar   21  TRP21      -0.0059
     45  C         -4.1980    5.7570   -5.7980 C.2    21  TRP21       0.3842
     46  O         -3.8460    5.1650   -6.8230 O.co2  21  TRP21      -0.2437
     47  OXT       -3.8410    6.8940   -5.4590 O.co2  21  TRP21      -0.2437
@<TRIPOS>BOND
     1    40    41   ar
     2    40    39   ar
     3    41    42   ar
     4    39    38    1
     5    39    44   ar
     6    42    43   ar
     7    38    37    1
     8    43    44   ar
     9    44    36    1
    10    37    36    1
    11    36    35    1
    12    47    45   ar
    13     5     4    1
    14    35    34    1
    15    45    34    1
    16    45    46   ar
    17    34    33    1
    18     8     7    2
    19     4     6    1
    20     4     3    1
    21     2     3    1
    22     2     1    1
    23     2     7    1
    24     7     9   am
    25    33    31   am
    26    32    31    2
    27    31    26    1
    28     9    10    1
    29    10    11    1
    30    10    15    1
    31    26    27    1
    32    26    25    1
    33    11    12    1
    34    13    12   ar
    35    27    29    1
    36    27    28    1
    37    29    30    1
    38    16    15    2
    39    15    17   am
    40    12    14   ar
    41    25    23   am
    42    17    18    1
    43    23    24    2
    44    23    18    1
    45    18    19    1
    46    19    21    1
    47    19    20    1
    48    21    22    1
