@<TRIPOS>MOLECULE
../ET1/ET1_17-21_50CONFORMERS_NOBACKBONE.pdb
 26 23 0 0 0
SMALL
GASTEIGER

@<TRIPOS>ATOM
      1  CB        -5.9910   -1.7310   -0.5350 C.3    17  LEU17       0.0000
      2  CG        -7.3580   -2.4930   -0.5800 C.3    17  LEU17       0.0000
      3  CD1       -7.5600   -3.4620   -1.7150 C.3    17  LEU17       0.0000
      4  CD2       -7.4530   -3.3820    0.6830 C.3    17  LEU17       0.0000
      5  CB        -9.1650    0.9770    0.3400 C.3    18  ASP18       0.1258
      6  CG       -10.4650    1.6800    0.7040 C.2    18  ASP18       0.3654
      7  OD1      -11.3360    1.8120   -0.1900 O.co2  18  ASP18      -0.2456
      8  OD2      -10.6500    2.1090    1.8620 O.co2  18  ASP18      -0.2456
      9  CB        -6.3180    4.5590    2.8920 C.3    19  ILE19       0.0000
     10  CG2       -4.8670    4.0770    3.0310 C.3    19  ILE19       0.0000
     11  CG1       -6.5010    5.8200    3.7530 C.3    19  ILE19       0.0000
     12  CD1       -6.2860    5.7290    5.2240 C.3    19  ILE19       0.0000
     13  CB        -2.8750    5.6400   -0.9260 C.3    20  ILE20       0.0000
     14  CG2       -2.9020    6.8270    0.0290 C.3    20  ILE20       0.0000
     15  CG1       -2.0780    4.4810   -0.2880 C.3    20  ILE20       0.0000
     16  CD1       -0.5920    4.8190   -0.0850 C.3    20  ILE20       0.0000
     17  CB        -5.7850    3.6920   -5.1280 C.3    21  TRP21       0.0066
     18  CG        -6.1880    2.7750   -6.2550 C.3    21  TRP21       0.0452
     19  CD1       -6.8760    3.0110   -7.4280 C.3    21  TRP21       0.1165
     20  NE1       -6.9590    1.8860   -8.2330 N.pl3  21  TRP21      -0.2376
     21  CE2       -6.4300    0.7670   -7.6180 C.ar   21  TRP21       0.0614
     22  CZ2       -6.4080   -0.5770   -8.0000 C.ar   21  TRP21       0.0158
     23  CH2       -5.9740   -1.4990   -7.0380 C.ar   21  TRP21       0.0013
     24  CZ3       -5.3530   -1.0000   -5.8470 C.ar   21  TRP21      -0.0002
     25  CE3       -5.3710    0.3600   -5.5650 C.ar   21  TRP21      -0.0030
     26  CD2       -5.9220    1.3390   -6.4120 C.ar   21  TRP21      -0.0059
@<TRIPOS>BOND
     1    22    23   ar
     2    22    21   ar
     3    23    24   ar
     4    21    20    1
     5    21    26   ar
     6    24    25   ar
     7    20    19    1
     8    25    26   ar
     9    26    18    1
    10    19    18    1
    11    18    17    1
    12     3     2    1
    13     2     4    1
    14     2     1    1
    15     5     6    1
    16     7     6   ar
    17    13    15    1
    18    13    14    1
    19    15    16    1
    20     6     8   ar
    21     9    11    1
    22     9    10    1
    23    11    12    1
@<TRIPOS>MOLECULE
HTS1204-03362316-01
 44 47 0 0 0
SMALL
USER_CHARGES

@<TRIPOS>ATOM
      1 C1         -5.0095    0.3573   -4.9856 C.ar    1  UNK11      -0.0199
      2 N1         -4.7640    1.5692   -6.8458 N.ar    1  UNK11      -0.3494
      3 C2         -5.6691    1.3732    3.0842 C.2     1  UNK11       0.3028
      4 C3         -4.4855    1.5252   -5.5052 C.ar    1  UNK11       0.0086
      5 C4         -2.6164    0.6290   -2.8003 C.2     1  UNK11       0.2342
      6 C5         -5.6735   -0.3072   -6.0739 C.ar    1  UNK11       0.0031
      7 C6         -5.4817    0.3802   -0.4259 C.2     1  UNK11       0.2340
      8 C7         -5.5005    0.4678   -7.2224 C.ar    1  UNK11       0.0491
      9 N2         -5.2103    1.0823    1.8363 N.am    1  UNK11      -0.2879
     10 N3         -5.3258    2.6460    3.5434 N.am    1  UNK11      -0.2856
     11 N4         -4.3885    0.0554   -1.1981 N.am    1  UNK11      -0.3022
     12 N5         -1.7972    1.4314   -2.0422 N.am    1  UNK11      -0.3054
     13 C8         -4.1480    0.6264   -2.5329 C.3     1  UNK11       0.1034
     14 C9         -5.4238   -0.1370    1.0370 C.3     1  UNK11       0.1011
     15 C10        -2.1054    2.0484   -0.7313 C.3     1  UNK11       0.0680
     16 C11        -4.9262   -0.1852   -3.5822 C.3     1  UNK11       0.0013
     17 C12        -2.1568    1.0777    0.4886 C.2     1  UNK11       0.0623
     18 C13        -1.1795    3.2291   -0.4137 C.3     1  UNK11       0.0133
     19 O1         -6.3527    0.6115    3.7665 O.2     1  UNK11      -0.2526
     20 O2         -6.4036    1.0726   -0.8618 O.2     1  UNK11      -0.2738
     21 O3         -2.0961   -0.0119   -3.7183 O.2     1  UNK11      -0.2738
     22 N6          0.7177    1.6507   -0.4268 N.ar    1  UNK11      -0.2598
     23 O4         -2.1837   -0.1603    0.2112 O.co2   1  UNK11      -0.5479
     24 C14        -6.6652   -0.9865    1.3601 C.3     1  UNK11      -0.0236
     25 C15         0.2816    2.9072   -0.1864 C.ar    1  UNK11       0.0434
     26 O5         -2.4329    1.6284    1.5975 O.co2   1  UNK11      -0.5479
     27 C16        -4.3231    2.6116   -7.7436 C.3     1  UNK11       0.0119
     28 C17        -5.6488    2.9565    4.9364 C.3     1  UNK11       0.0161
     29 C18        -4.7569    3.7061    2.7048 C.3     1  UNK11       0.0161
     30 C19        -6.0172    0.0798   -8.4707 C.ar    1  UNK11      -0.0376
     31 C20        -6.3970   -1.5148   -6.1774 C.ar    1  UNK11      -0.0523
     32 C21        -6.6611   -2.3835    0.6887 C.3     1  UNK11      -0.0446
     33 C22         2.0077    1.3661   -0.1506 C.ar    1  UNK11       0.0279
     34 C23         1.1416    3.9144    0.2480 C.ar    1  UNK11      -0.0403
     35 C24        -7.1439   -2.3590   -0.7616 C.3     1  UNK11      -0.0626
     36 C25        -7.5443   -3.3474    1.4896 C.3     1  UNK11      -0.0626
     37 C26        -5.5453    4.4280    5.3430 C.3     1  UNK11      -0.0371
     38 C27        -5.8007    4.7338    2.2604 C.3     1  UNK11      -0.0371
     39 C28        -6.9189   -1.9098   -7.4135 C.ar    1  UNK11      -0.0611
     40 C29        -6.7285   -1.1219   -8.5442 C.ar    1  UNK11      -0.0598
     41 C30         2.9209    2.3043    0.2967 C.ar    1  UNK11      -0.0436
     42 C31         2.4789    3.6083    0.4838 C.ar    1  UNK11      -0.0586
     43 C32        -6.5480    5.3559    4.6530 C.3     1  UNK11      -0.0516
     44 C33        -6.9538    4.9809    3.2304 C.3     1  UNK11      -0.0516
@<TRIPOS>BOND
     1     2     4   ar
     2     3     9   am
     3     1     4   ar
     4     5    13    1
     5     1     6   ar
     6     7    11   am
     7     6     8   ar
     8     9    14    1
     9     3    10   am
    10    11    13    1
    11     5    12   am
    12    13    16    1
    13     7    14    1
    14    12    15    1
    15     1    16    1
    16    15    17    1
    17    15    18    1
    18     3    19    2
    19     7    20    2
    20     5    21    2
    21    22    25   ar
    22    17    23   ar
    23    14    24    1
    24    18    25    1
    25    17    26   ar
    26     2    27    1
    27    10    28    1
    28    10    29    1
    29     8    30   ar
    30     6    31   ar
    31    24    32    1
    32    22    33   ar
    33    25    34   ar
    34    32    35    1
    35    32    36    1
    36    28    37    1
    37    29    38    1
    38    31    39   ar
    39    39    40   ar
    40    41    42   ar
    41    34    42   ar
    42    37    43    1
    43    38    44    1
    44     2     8   ar
    45    30    40   ar
    46    33    41   ar
    47    43    44    1
@<TRIPOS>MOLECULE
../ET1/ET1_17-21_50CONFORMERS.pdb
 47 48 0 0 0
SMALL
GASTEIGER

@<TRIPOS>ATOM
      1  N         -4.5630    0.0480   -1.4950 N.3    17  LEU17      -0.1231
      2  CA        -5.8010   -0.7600   -1.6870 C.3    17  LEU17       0.1693
      3  CB        -5.9910   -1.7310   -0.5350 C.3    17  LEU17       0.0284
      4  CG        -7.3580   -2.4930   -0.5800 C.3    17  LEU17       0.0019
      5  CD1       -7.5600   -3.4620   -1.7150 C.3    17  LEU17       0.0001
      6  CD2       -7.4530   -3.3820    0.6830 C.3    17  LEU17       0.0001
      7  C         -7.0420    0.1310   -1.8120 C.2    17  LEU17       0.2592
      8  O         -7.8800   -0.0650   -2.6740 O.2    17  LEU17      -0.2718
      9  N         -7.1700    1.1060   -0.8810 N.am   18  ASP18      -0.1960
     10  CA        -8.3690    1.8940   -0.6090 C.3    18  ASP18       0.1840
     11  CB        -9.1650    0.9770    0.3400 C.3    18  ASP18       0.1450
     12  CG       -10.4650    1.6800    0.7040 C.2    18  ASP18       0.3671
     13  OD1      -11.3360    1.8120   -0.1900 O.co2  18  ASP18      -0.2456
     14  OD2      -10.6500    2.1090    1.8620 O.co2  18  ASP18      -0.2456
     15  C         -8.1070    3.2940   -0.0020 C.2    18  ASP18       0.2622
     16  O         -8.7200    4.2330   -0.4670 O.2    18  ASP18      -0.2715
     17  N         -7.2480    3.5040    0.9560 N.am   19  ILE19      -0.1963
     18  CA        -6.8550    4.7290    1.4720 C.3    19  ILE19       0.1727
     19  CB        -6.3180    4.5590    2.8920 C.3    19  ILE19       0.0290
     20  CG2       -4.8670    4.0770    3.0310 C.3    19  ILE19       0.0023
     21  CG1       -6.5010    5.8200    3.7530 C.3    19  ILE19       0.0022
     22  CD1       -6.2860    5.7290    5.2240 C.3    19  ILE19       0.0001
     23  C         -5.9550    5.4860    0.5380 C.2    19  ILE19       0.2616
     24  O         -6.3810    6.5790    0.1880 O.2    19  ILE19      -0.2715
     25  N         -5.0060    4.7520   -0.0440 N.am   20  ILE20      -0.1963
     26  CA        -4.2710    5.1980   -1.2230 C.3    20  ILE20       0.1727
     27  CB        -2.8750    5.6400   -0.9260 C.3    20  ILE20       0.0290
     28  CG2       -2.9020    6.8270    0.0290 C.3    20  ILE20       0.0023
     29  CG1       -2.0780    4.4810   -0.2880 C.3    20  ILE20       0.0022
     30  CD1       -0.5920    4.8190   -0.0850 C.3    20  ILE20       0.0001
     31  C         -4.2360    4.1750   -2.3860 C.2    20  ILE20       0.2617
     32  O         -4.4130    2.9690   -2.1380 O.2    20  ILE20      -0.2715
     33  N         -4.2410    4.7470   -3.5730 N.am   21  TRP21      -0.1941
     34  CA        -4.2900    4.0880   -4.8450 C.3    21  TRP21       0.1982
     35  CB        -5.7850    3.6920   -5.1280 C.3    21  TRP21       0.0394
     36  CG        -6.1880    2.7750   -6.2550 C.3    21  TRP21       0.0475
     37  CD1       -6.8760    3.0110   -7.4280 C.3    21  TRP21       0.1166
     38  NE1       -6.9590    1.8860   -8.2330 N.pl3  21  TRP21      -0.2376
     39  CE2       -6.4300    0.7670   -7.6180 C.ar   21  TRP21       0.0614
     40  CZ2       -6.4080   -0.5770   -8.0000 C.ar   21  TRP21       0.0158
     41  CH2       -5.9740   -1.4990   -7.0380 C.ar   21  TRP21       0.0013
     42  CZ3       -5.3530   -1.0000   -5.8470 C.ar   21  TRP21      -0.0002
     43  CE3       -5.3710    0.3600   -5.5650 C.ar   21  TRP21      -0.0030
     44  CD2       -5.9220    1.3390   -6.4120 C.ar   21  TRP21      -0.0059
     45  C         -3.6540    4.9650   -5.9610 C.2    21  TRP21       0.3842
     46  O         -3.8740    6.1890   -5.9220 O.co2  21  TRP21      -0.2437
     47  OXT       -2.8330    4.4760   -6.7700 O.co2  21  TRP21      -0.2437
@<TRIPOS>BOND
     1    40    41   ar
     2    40    39   ar
     3    41    42   ar
     4    39    38    1
     5    39    44   ar
     6    42    43   ar
     7    38    37    1
     8    43    44   ar
     9    44    36    1
    10    37    36    1
    11    36    35    1
    12    47    45   ar
    13     5     4    1
    14    35    34    1
    15    45    34    1
    16    45    46   ar
    17    34    33    1
    18     8     7    2
    19     4     6    1
    20     4     3    1
    21     2     3    1
    22     2     1    1
    23     2     7    1
    24     7     9   am
    25    33    31   am
    26    32    31    2
    27    31    26    1
    28     9    10    1
    29    10    11    1
    30    10    15    1
    31    26    27    1
    32    26    25    1
    33    11    12    1
    34    13    12   ar
    35    27    29    1
    36    27    28    1
    37    29    30    1
    38    16    15    2
    39    15    17   am
    40    12    14   ar
    41    25    23   am
    42    17    18    1
    43    23    24    2
    44    23    18    1
    45    18    19    1
    46    19    21    1
    47    19    20    1
    48    21    22    1
