@<TRIPOS>MOLECULE
../ET1/ET1_17-21_50CONFORMERS_NOBACKBONE.pdb
 26 23 0 0 0
SMALL
GASTEIGER

@<TRIPOS>ATOM
      1  CB        -6.0320   -1.7260   -1.1030 C.3    17  LEU17       0.0000
      2  CG        -7.0780   -2.6010   -1.6650 C.3    17  LEU17       0.0000
      3  CD1       -6.7850   -3.1800   -3.0690 C.3    17  LEU17       0.0000
      4  CD2       -7.3480   -3.7290   -0.7320 C.3    17  LEU17       0.0000
      5  CB        -8.8130    1.1140    1.2660 C.3    18  ASP18       0.1258
      6  CG       -10.2300    1.4980    1.6400 C.2    18  ASP18       0.3654
      7  OD1      -10.4900    2.2680    2.5970 O.co2  18  ASP18      -0.2456
      8  OD2      -11.1770    1.1770    0.8180 O.co2  18  ASP18      -0.2456
      9  CB        -4.8870    4.3750    2.7780 C.3    19  ILE19       0.0000
     10  CG2       -4.4050    5.6090    3.4770 C.3    19  ILE19       0.0000
     11  CG1       -5.2510    3.2630    3.8230 C.3    19  ILE19       0.0000
     12  CD1       -6.5040    3.5010    4.6160 C.3    19  ILE19       0.0000
     13  CB        -3.0410    5.9480   -1.7710 C.3    20  ILE20       0.0000
     14  CG2       -2.9160    7.1040   -0.8250 C.3    20  ILE20       0.0000
     15  CG1       -1.9950    4.8170   -1.4230 C.3    20  ILE20       0.0000
     16  CD1       -0.5500    5.1390   -1.9550 C.3    20  ILE20       0.0000
     17  CB        -7.9200    4.1250   -3.7570 C.3    21  TRP21       0.0066
     18  CG        -8.4250    5.4530   -3.3620 C.3    21  TRP21       0.0452
     19  CD1       -8.1190    6.0680   -2.2450 C.3    21  TRP21       0.1165
     20  NE1       -8.7560    7.2690   -2.1720 N.pl3  21  TRP21      -0.2376
     21  CE2       -9.5810    7.4730   -3.2750 C.ar   21  TRP21       0.0614
     22  CZ2      -10.4220    8.4750   -3.7020 C.ar   21  TRP21       0.0158
     23  CH2      -11.1680    8.3670   -4.9280 C.ar   21  TRP21       0.0013
     24  CZ3      -11.0860    7.1640   -5.6280 C.ar   21  TRP21      -0.0002
     25  CE3      -10.1730    6.1170   -5.2330 C.ar   21  TRP21      -0.0030
     26  CD2       -9.4090    6.2620   -4.0570 C.ar   21  TRP21      -0.0059
@<TRIPOS>BOND
     1    22    23   ar
     2    22    21   ar
     3    23    24   ar
     4    21    20    1
     5    21    26   ar
     6    24    25   ar
     7    20    19    1
     8    25    26   ar
     9    26    18    1
    10    19    18    1
    11    18    17    1
    12     3     2    1
    13     2     4    1
    14     2     1    1
    15     5     6    1
    16     7     6   ar
    17    13    15    1
    18    13    14    1
    19    15    16    1
    20     6     8   ar
    21     9    11    1
    22     9    10    1
    23    11    12    1
@<TRIPOS>MOLECULE
9957262
 35 38 0 0 0
SMALL
GASTEIGER

@<TRIPOS>ATOM
      1 S          -7.2837    3.1256   -2.4414 S.O2    1  LIG11       0.0668
      2 O          -5.1490    4.5417   -4.7988 O.3     1  LIG11      -0.4435
      3 O          -2.2787    4.4856   -4.9216 O.3     1  LIG11      -0.4771
      4 O          -8.1160    2.1111   -1.8247 O.2     1  LIG11      -0.1505
      5 O          -6.4483    3.9726   -1.6189 O.2     1  LIG11      -0.1505
      6 O          -4.2396    5.9712   -2.5319 O.3     1  LIG11      -0.4914
      7 N          -6.3296    2.2594   -3.5349 N.pl3   1  LIG11      -0.1968
      8 N          -4.2884    1.6153   -2.8173 N.ar    1  LIG11      -0.2044
      9 N          -2.2607    2.6793   -3.4397 N.ar    1  LIG11      -0.1867
     10 N          -2.8962    0.1951   -0.8718 N.ar    1  LIG11      -0.2331
     11 N          -0.8614    0.7085   -2.0131 N.ar    1  LIG11      -0.2331
     12 C          -4.9414    2.5589   -3.5076 C.ar    1  LIG11       0.1883
     13 C          -4.3595    3.6317   -4.1511 C.ar    1  LIG11       0.2307
     14 C          -2.9754    3.5870   -4.1363 C.ar    1  LIG11       0.2639
     15 C          -4.7421    5.8628   -4.8497 C.ar    1  LIG11       0.1702
     16 C          -8.3308    4.0731   -3.4487 C.2     1  LIG11       0.0729
     17 C          -2.9498    1.7464   -2.7520 C.ar    1  LIG11       0.2027
     18 C          -4.2587    6.5948   -3.7499 C.ar    1  LIG11       0.1621
     19 C          -8.4657    5.3902   -3.2364 C.2     1  LIG11      -0.0353
     20 C          -9.3928    6.2841   -3.9539 C.ar    1  LIG11      -0.0237
     21 C          -4.8639    6.4770   -6.1009 C.ar    1  LIG11      -0.0157
     22 C          -2.2006    0.8300   -1.8469 C.ar    1  LIG11       0.1978
     23 C          -3.8641    7.9248   -3.9360 C.ar    1  LIG11      -0.0163
     24 C          -4.4619    7.8008   -6.2761 C.ar    1  LIG11      -0.0581
     25 C          -3.9553    8.5206   -5.1966 C.ar    1  LIG11      -0.0581
     26 C         -10.2940    5.8476   -4.9358 C.ar    1  LIG11      -0.0546
     27 C          -9.3958    7.6446   -3.6114 C.ar    1  LIG11      -0.0546
     28 C         -11.1704    6.7449   -5.5558 C.ar    1  LIG11      -0.0612
     29 C         -10.2724    8.5414   -4.2291 C.ar    1  LIG11      -0.0612
     30 C         -11.1598    8.0909   -5.2017 C.ar    1  LIG11      -0.0617
     31 C          -0.8637    4.3754   -4.8125 C.3     1  LIG11       0.0805
     32 C          -3.2464    6.4107   -1.6130 C.3     1  LIG11       0.0790
     33 C          -2.1936   -0.5777   -0.0257 C.ar    1  LIG11       0.0315
     34 C          -0.2148   -0.0900   -1.1438 C.ar    1  LIG11       0.0315
     35 C          -0.8358   -0.7591   -0.1169 C.ar    1  LIG11      -0.0254
@<TRIPOS>BOND
     1     1     4    2
     2     1     5    2
     3     1     7    1
     4     1    16    1
     5     2    13    1
     6     2    15    1
     7     3    14    1
     8     3    31    1
     9     6    18    1
    10     6    32    1
    11     7    12    1
    12     8    12   ar
    13     8    17   ar
    14     9    14   ar
    15     9    17   ar
    16    10    22   ar
    17    10    33   ar
    18    11    22   ar
    19    11    34   ar
    20    12    13   ar
    21    13    14   ar
    22    15    18   ar
    23    15    21   ar
    24    16    19    2
    25    17    22    1
    26    18    23   ar
    27    19    20    1
    28    20    26   ar
    29    20    27   ar
    30    21    24   ar
    31    23    25   ar
    32    24    25   ar
    33    26    28   ar
    34    27    29   ar
    35    28    30   ar
    36    29    30   ar
    37    33    35   ar
    38    34    35   ar
@<TRIPOS>MOLECULE
../ET1/ET1_17-21_50CONFORMERS.pdb
 47 48 0 0 0
SMALL
GASTEIGER

@<TRIPOS>ATOM
      1  N         -4.5390    0.2280   -1.6100 N.3    17  LEU17      -0.1231
      2  CA        -5.8680   -0.3980   -1.8940 C.3    17  LEU17       0.1693
      3  CB        -6.0320   -1.7260   -1.1030 C.3    17  LEU17       0.0284
      4  CG        -7.0780   -2.6010   -1.6650 C.3    17  LEU17       0.0019
      5  CD1       -6.7850   -3.1800   -3.0690 C.3    17  LEU17       0.0001
      6  CD2       -7.3480   -3.7290   -0.7320 C.3    17  LEU17       0.0001
      7  C         -7.1270    0.4540   -1.5890 C.2    17  LEU17       0.2592
      8  O         -8.1120    0.2970   -2.2000 O.2    17  LEU17      -0.2718
      9  N         -7.0630    1.2010   -0.5010 N.am   18  ASP18      -0.1960
     10  CA        -8.2440    1.9290    0.0850 C.3    18  ASP18       0.1840
     11  CB        -8.8130    1.1140    1.2660 C.3    18  ASP18       0.1450
     12  CG       -10.2300    1.4980    1.6400 C.2    18  ASP18       0.3671
     13  OD1      -10.4900    2.2680    2.5970 O.co2  18  ASP18      -0.2456
     14  OD2      -11.1770    1.1770    0.8180 O.co2  18  ASP18      -0.2456
     15  C         -7.8330    3.3550    0.6240 C.2    18  ASP18       0.2622
     16  O         -8.5870    4.3920    0.4550 O.2    18  ASP18      -0.2715
     17  N         -6.6540    3.4520    1.3220 N.am   19  ILE19      -0.1963
     18  CA        -6.0210    4.6750    1.7890 C.3    19  ILE19       0.1727
     19  CB        -4.8870    4.3750    2.7780 C.3    19  ILE19       0.0290
     20  CG2       -4.4050    5.6090    3.4770 C.3    19  ILE19       0.0023
     21  CG1       -5.2510    3.2630    3.8230 C.3    19  ILE19       0.0022
     22  CD1       -6.5040    3.5010    4.6160 C.3    19  ILE19       0.0001
     23  C         -5.5350    5.5070    0.5840 C.2    19  ILE19       0.2616
     24  O         -5.9050    6.6660    0.4660 O.2    19  ILE19      -0.2715
     25  N         -4.7320    4.9080   -0.3300 N.am   20  ILE20      -0.1963
     26  CA        -4.4970    5.4200   -1.7260 C.3    20  ILE20       0.1727
     27  CB        -3.0410    5.9480   -1.7710 C.3    20  ILE20       0.0290
     28  CG2       -2.9160    7.1040   -0.8250 C.3    20  ILE20       0.0023
     29  CG1       -1.9950    4.8170   -1.4230 C.3    20  ILE20       0.0022
     30  CD1       -0.5500    5.1390   -1.9550 C.3    20  ILE20       0.0001
     31  C         -4.9410    4.3990   -2.7850 C.2    20  ILE20       0.2617
     32  O         -4.8590    3.1790   -2.5280 O.2    20  ILE20      -0.2715
     33  N         -5.5740    4.8700   -3.8240 N.am   21  TRP21      -0.1941
     34  CA        -6.5840    4.1470   -4.6190 C.3    21  TRP21       0.1982
     35  CB        -7.9200    4.1250   -3.7570 C.3    21  TRP21       0.0394
     36  CG        -8.4250    5.4530   -3.3620 C.3    21  TRP21       0.0475
     37  CD1       -8.1190    6.0680   -2.2450 C.3    21  TRP21       0.1166
     38  NE1       -8.7560    7.2690   -2.1720 N.pl3  21  TRP21      -0.2376
     39  CE2       -9.5810    7.4730   -3.2750 C.ar   21  TRP21       0.0614
     40  CZ2      -10.4220    8.4750   -3.7020 C.ar   21  TRP21       0.0158
     41  CH2      -11.1680    8.3670   -4.9280 C.ar   21  TRP21       0.0013
     42  CZ3      -11.0860    7.1640   -5.6280 C.ar   21  TRP21      -0.0002
     43  CE3      -10.1730    6.1170   -5.2330 C.ar   21  TRP21      -0.0030
     44  CD2       -9.4090    6.2620   -4.0570 C.ar   21  TRP21      -0.0059
     45  C         -6.7510    4.7320   -6.0260 C.2    21  TRP21       0.3842
     46  O         -6.9370    3.8970   -6.9640 O.co2  21  TRP21      -0.2437
     47  OXT       -6.5930    5.9650   -6.2350 O.co2  21  TRP21      -0.2437
@<TRIPOS>BOND
     1    40    41   ar
     2    40    39   ar
     3    41    42   ar
     4    39    38    1
     5    39    44   ar
     6    42    43   ar
     7    38    37    1
     8    43    44   ar
     9    44    36    1
    10    37    36    1
    11    36    35    1
    12    47    45   ar
    13     5     4    1
    14    35    34    1
    15    45    34    1
    16    45    46   ar
    17    34    33    1
    18     8     7    2
    19     4     6    1
    20     4     3    1
    21     2     3    1
    22     2     1    1
    23     2     7    1
    24     7     9   am
    25    33    31   am
    26    32    31    2
    27    31    26    1
    28     9    10    1
    29    10    11    1
    30    10    15    1
    31    26    27    1
    32    26    25    1
    33    11    12    1
    34    13    12   ar
    35    27    29    1
    36    27    28    1
    37    29    30    1
    38    16    15    2
    39    15    17   am
    40    12    14   ar
    41    25    23   am
    42    17    18    1
    43    23    24    2
    44    23    18    1
    45    18    19    1
    46    19    21    1
    47    19    20    1
    48    21    22    1
