@<TRIPOS>MOLECULE
../ET1/ET1_17-21_50CONFORMERS_NOBACKBONE.pdb
 26 23 0 0 0
SMALL
GASTEIGER

@<TRIPOS>ATOM
      1  CB        -5.9400   -2.0450   -1.1720 C.3    17  LEU17       0.0000
      2  CG        -7.3480   -2.7230   -1.2450 C.3    17  LEU17       0.0000
      3  CD1       -7.7650   -3.2050   -2.6260 C.3    17  LEU17       0.0000
      4  CD2       -7.3690   -3.7850   -0.1150 C.3    17  LEU17       0.0000
      5  CB        -9.2180    0.9140    1.4810 C.3    18  ASP18       0.1258
      6  CG       -10.2990    1.9900    1.8220 C.2    18  ASP18       0.3654
      7  OD1      -11.2830    2.1470    1.0850 O.co2  18  ASP18      -0.2456
      8  OD2      -10.1960    2.7130    2.8240 O.co2  18  ASP18      -0.2456
      9  CB        -5.1500    3.9810    3.1070 C.3    19  ILE19       0.0000
     10  CG2       -4.8530    5.2880    3.9490 C.3    19  ILE19       0.0000
     11  CG1       -5.3540    2.7650    4.0520 C.3    19  ILE19       0.0000
     12  CD1       -6.7440    2.6910    4.7780 C.3    19  ILE19       0.0000
     13  CB        -2.8150    5.5810   -0.8870 C.3    20  ILE20       0.0000
     14  CG2       -2.5270    6.1070    0.5620 C.3    20  ILE20       0.0000
     15  CG1       -1.9460    4.3700   -1.2540 C.3    20  ILE20       0.0000
     16  CD1       -0.4660    4.7680   -1.0890 C.3    20  ILE20       0.0000
     17  CB        -6.5670    5.2890   -5.1920 C.3    21  TRP21       0.0066
     18  CG        -7.6370    4.5460   -4.4460 C.3    21  TRP21       0.0452
     19  CD1       -7.9760    4.8320   -3.1780 C.3    21  TRP21       0.1165
     20  NE1       -8.9670    3.9650   -2.8200 N.pl3  21  TRP21      -0.2376
     21  CE2       -9.3160    3.0730   -3.8500 C.ar   21  TRP21       0.0614
     22  CZ2      -10.2780    1.9910   -3.9100 C.ar   21  TRP21       0.0158
     23  CH2      -10.3530    1.2810   -5.1340 C.ar   21  TRP21       0.0013
     24  CZ3       -9.5340    1.6440   -6.1950 C.ar   21  TRP21      -0.0002
     25  CE3       -8.6260    2.7510   -6.1090 C.ar   21  TRP21      -0.0030
     26  CD2       -8.4790    3.4760   -4.8900 C.ar   21  TRP21      -0.0059
@<TRIPOS>BOND
     1    22    23   ar
     2    22    21   ar
     3    23    24   ar
     4    21    20    1
     5    21    26   ar
     6    24    25   ar
     7    20    19    1
     8    25    26   ar
     9    26    18    1
    10    19    18    1
    11    18    17    1
    12     3     2    1
    13     2     4    1
    14     2     1    1
    15     5     6    1
    16     7     6   ar
    17    13    15    1
    18    13    14    1
    19    15    16    1
    20     6     8   ar
    21     9    11    1
    22     9    10    1
    23    11    12    1
@<TRIPOS>MOLECULE
11672244
 53 58 0 0 0
SMALL
GASTEIGER

@<TRIPOS>ATOM
      1 O          -6.6639    3.1654    0.7916 O.3     1  LIG11      -0.4607
      2 O          -1.3771    5.4587   -3.5207 O.2     1  LIG11      -0.2968
      3 O          -5.8119    5.0275    6.5423 O.co2   1  LIG11      -0.5492
      4 O          -5.7280    3.0030    7.5591 O.co2   1  LIG11      -0.5492
      5 O          -5.1905    2.2994   -0.7522 O.2     1  LIG11      -0.2456
      6 O         -10.6164    3.8980   -5.7009 O.3     1  LIG11      -0.5067
      7 O          -8.2808    0.0326   -0.8950 O.2     1  LIG11      -0.2705
      8 O          -6.4068   -4.6011   -1.7155 O.co2   1  LIG11      -0.5452
      9 O          -4.3103   -3.6983   -1.5959 O.co2   1  LIG11      -0.5452
     10 N          -8.3573   -0.5201   -3.1693 N.am    1  LIG11      -0.2815
     11 C          -3.8198    3.8342    2.4078 C.3     1  LIG11      -0.0160
     12 C          -4.0766    5.0114    1.3993 C.3     1  LIG11      -0.0256
     13 C          -5.2677    3.2767    2.9506 C.3     1  LIG11       0.0318
     14 C          -2.8651    5.4647    0.4615 C.3     1  LIG11      -0.0243
     15 C          -2.2623    4.1720   -0.1902 C.3     1  LIG11      -0.0235
     16 C          -2.9907    2.7049    1.7388 C.3     1  LIG11      -0.0461
     17 C          -6.1681    4.4522    3.4130 C.2     1  LIG11      -0.0596
     18 C          -7.3674    4.0848    4.3157 C.3     1  LIG11      -0.0080
     19 C          -1.8045    3.1835    0.9012 C.3     1  LIG11      -0.0483
     20 C          -5.0130    2.2993    4.1536 C.3     1  LIG11      -0.0392
     21 C          -4.8143    6.1645    2.1101 C.3     1  LIG11      -0.0306
     22 C          -6.9798    3.1788    5.5126 C.3     1  LIG11       0.0167
     23 C          -1.2310    4.3737   -1.3515 C.3     1  LIG11       0.0267
     24 C          -3.4461    6.3235   -0.6987 C.3     1  LIG11      -0.0404
     25 C          -6.2508    1.9283    4.9748 C.3     1  LIG11      -0.0408
     26 C          -2.9706    4.3480    3.6168 C.3     1  LIG11      -0.0584
     27 C          -5.9187    5.7184    3.0200 C.2     1  LIG11      -0.0835
     28 C          -6.0769    2.4346    1.8848 C.3     1  LIG11       0.1025
     29 C          -1.8124    6.3206    1.2041 C.3     1  LIG11      -0.0590
     30 C          -8.2852    5.2602    4.7509 C.3     1  LIG11      -0.0405
     31 C          -8.2650    2.7116    6.2405 C.3     1  LIG11      -0.0412
     32 C          -2.4424    6.6643   -1.7884 C.3     1  LIG11       0.0069
     33 C          -9.5304    4.8367    5.5679 C.3     1  LIG11      -0.0343
     34 C          -1.7109    5.4606   -2.3301 C.2     1  LIG11       0.1392
     35 C          -9.1371    3.8770    6.7070 C.3     1  LIG11      -0.0470
     36 C           0.1881    4.7385   -0.8920 C.3     1  LIG11      -0.0528
     37 C          -1.1262    3.0568   -2.1680 C.3     1  LIG11      -0.0528
     38 C          -6.0800    3.7962    6.6368 C.2     1  LIG11       0.0485
     39 C         -10.1734    6.0954    6.1843 C.3     1  LIG11      -0.0598
     40 C         -10.5779    4.1793    4.6467 C.3     1  LIG11      -0.0598
     41 C          -6.2726    2.7708   -0.4426 C.2     1  LIG11       0.3320
     42 C          -7.4125    2.9180   -1.3687 C.2     1  LIG11       0.0231
     43 C          -7.3497    2.2117   -2.5077 C.2     1  LIG11      -0.0460
     44 C          -8.4908    1.9696   -3.3973 C.ar    1  LIG11      -0.0001
     45 C          -8.8799    0.6572   -3.7520 C.ar    1  LIG11       0.0411
     46 C          -9.0834    3.0657   -4.0465 C.ar    1  LIG11      -0.0113
     47 C          -9.8063    0.4731   -4.7889 C.ar    1  LIG11      -0.0364
     48 C         -10.0328    2.8543   -5.0433 C.ar    1  LIG11       0.1175
     49 C         -10.3933    1.5692   -5.4226 C.ar    1  LIG11      -0.0184
     50 C          -8.0369   -0.7084   -1.8365 C.2     1  LIG11       0.2411
     51 C          -7.4712   -2.0562   -1.6272 C.2     1  LIG11       0.0021
     52 C          -6.1480   -2.2499   -1.7161 C.2     1  LIG11      -0.0344
     53 C          -5.5704   -3.6565   -1.6474 C.2     1  LIG11       0.0647
@<TRIPOS>BOND
     1     1    41    1
     2     1    28    1
     3     2    34    2
     4     3    38   ar
     5     4    38   ar
     6     5    41    2
     7     6    48    1
     8     7    50    2
     9     8    53   ar
    10     9    53   ar
    11    10    45    1
    12    10    50   am
    13    11    16    1
    14    11    12    1
    15    11    26    1
    16    11    13    1
    17    12    14    1
    18    13    20    1
    19    13    17    1
    20    13    28    1
    21    14    15    1
    22    14    24    1
    23    14    29    1
    24    15    19    1
    25    15    23    1
    26    16    19    1
    27    17    18    1
    28    17    27    2
    29    18    30    1
    30    18    22    1
    31    20    25    1
    32    21    27    1
    33    21    12    1
    34    22    31    1
    35    22    25    1
    36    22    38    1
    37    23    34    1
    38    23    37    1
    39    23    36    1
    40    24    32    1
    41    30    33    1
    42    31    35    1
    43    32    34    1
    44    33    35    1
    45    33    40    1
    46    33    39    1
    47    41    42    1
    48    42    43    2
    49    43    44    1
    50    44    46   ar
    51    44    45   ar
    52    45    47   ar
    53    46    48   ar
    54    47    49   ar
    55    48    49   ar
    56    50    51    1
    57    51    52    2
    58    52    53    1
@<TRIPOS>MOLECULE
../ET1/ET1_17-21_50CONFORMERS.pdb
 47 48 0 0 0
SMALL
GASTEIGER

@<TRIPOS>ATOM
      1  N         -4.7170    0.0040   -1.5390 N.3    17  LEU17      -0.1231
      2  CA        -5.9340   -0.7030   -1.8900 C.3    17  LEU17       0.1693
      3  CB        -5.9400   -2.0450   -1.1720 C.3    17  LEU17       0.0284
      4  CG        -7.3480   -2.7230   -1.2450 C.3    17  LEU17       0.0019
      5  CD1       -7.7650   -3.2050   -2.6260 C.3    17  LEU17       0.0001
      6  CD2       -7.3690   -3.7850   -0.1150 C.3    17  LEU17       0.0001
      7  C         -7.2350    0.1710   -1.5190 C.2    17  LEU17       0.2592
      8  O         -8.0100    0.4870   -2.4960 O.2    17  LEU17      -0.2718
      9  N         -7.3530    0.5320   -0.2260 N.am   18  ASP18      -0.1960
     10  CA        -8.3460    1.4470    0.3660 C.3    18  ASP18       0.1840
     11  CB        -9.2180    0.9140    1.4810 C.3    18  ASP18       0.1450
     12  CG       -10.2990    1.9900    1.8220 C.2    18  ASP18       0.3671
     13  OD1      -11.2830    2.1470    1.0850 O.co2  18  ASP18      -0.2456
     14  OD2      -10.1960    2.7130    2.8240 O.co2  18  ASP18      -0.2456
     15  C         -7.8310    2.7860    0.6880 C.2    18  ASP18       0.2622
     16  O         -8.4890    3.8060    0.4240 O.2    18  ASP18      -0.2715
     17  N         -6.7010    2.9100    1.4090 N.am   19  ILE19      -0.1963
     18  CA        -6.2450    4.1960    2.0090 C.3    19  ILE19       0.1727
     19  CB        -5.1500    3.9810    3.1070 C.3    19  ILE19       0.0290
     20  CG2       -4.8530    5.2880    3.9490 C.3    19  ILE19       0.0023
     21  CG1       -5.3540    2.7650    4.0520 C.3    19  ILE19       0.0022
     22  CD1       -6.7440    2.6910    4.7780 C.3    19  ILE19       0.0001
     23  C         -5.7120    5.0450    0.8620 C.2    19  ILE19       0.2616
     24  O         -6.2150    6.1830    0.7060 O.2    19  ILE19      -0.2715
     25  N         -4.8280    4.5440    0.0700 N.am   20  ILE20      -0.1963
     26  CA        -4.3100    5.2660   -1.0930 C.3    20  ILE20       0.1727
     27  CB        -2.8150    5.5810   -0.8870 C.3    20  ILE20       0.0290
     28  CG2       -2.5270    6.1070    0.5620 C.3    20  ILE20       0.0023
     29  CG1       -1.9460    4.3700   -1.2540 C.3    20  ILE20       0.0022
     30  CD1       -0.4660    4.7680   -1.0890 C.3    20  ILE20       0.0001
     31  C         -4.6280    4.5880   -2.4050 C.2    20  ILE20       0.2617
     32  O         -4.6580    3.3760   -2.5120 O.2    20  ILE20      -0.2715
     33  N         -4.8020    5.3980   -3.4870 N.am   21  TRP21      -0.1941
     34  CA        -5.0960    5.0300   -4.8910 C.3    21  TRP21       0.1982
     35  CB        -6.5670    5.2890   -5.1920 C.3    21  TRP21       0.0394
     36  CG        -7.6370    4.5460   -4.4460 C.3    21  TRP21       0.0475
     37  CD1       -7.9760    4.8320   -3.1780 C.3    21  TRP21       0.1166
     38  NE1       -8.9670    3.9650   -2.8200 N.pl3  21  TRP21      -0.2376
     39  CE2       -9.3160    3.0730   -3.8500 C.ar   21  TRP21       0.0614
     40  CZ2      -10.2780    1.9910   -3.9100 C.ar   21  TRP21       0.0158
     41  CH2      -10.3530    1.2810   -5.1340 C.ar   21  TRP21       0.0013
     42  CZ3       -9.5340    1.6440   -6.1950 C.ar   21  TRP21      -0.0002
     43  CE3       -8.6260    2.7510   -6.1090 C.ar   21  TRP21      -0.0030
     44  CD2       -8.4790    3.4760   -4.8900 C.ar   21  TRP21      -0.0059
     45  C         -4.1980    5.7570   -5.7980 C.2    21  TRP21       0.3842
     46  O         -3.8460    5.1650   -6.8230 O.co2  21  TRP21      -0.2437
     47  OXT       -3.8410    6.8940   -5.4590 O.co2  21  TRP21      -0.2437
@<TRIPOS>BOND
     1    40    41   ar
     2    40    39   ar
     3    41    42   ar
     4    39    38    1
     5    39    44   ar
     6    42    43   ar
     7    38    37    1
     8    43    44   ar
     9    44    36    1
    10    37    36    1
    11    36    35    1
    12    47    45   ar
    13     5     4    1
    14    35    34    1
    15    45    34    1
    16    45    46   ar
    17    34    33    1
    18     8     7    2
    19     4     6    1
    20     4     3    1
    21     2     3    1
    22     2     1    1
    23     2     7    1
    24     7     9   am
    25    33    31   am
    26    32    31    2
    27    31    26    1
    28     9    10    1
    29    10    11    1
    30    10    15    1
    31    26    27    1
    32    26    25    1
    33    11    12    1
    34    13    12   ar
    35    27    29    1
    36    27    28    1
    37    29    30    1
    38    16    15    2
    39    15    17   am
    40    12    14   ar
    41    25    23   am
    42    17    18    1
    43    23    24    2
    44    23    18    1
    45    18    19    1
    46    19    21    1
    47    19    20    1
    48    21    22    1
