@<TRIPOS>MOLECULE
../ET1/ET1_17-21_50CONFORMERS_NOBACKBONE.pdb
 26 23 0 0 0
SMALL
GASTEIGER

@<TRIPOS>ATOM
      1  CB        -6.1150   -1.4830   -0.5580 C.3    17  LEU17       0.0000
      2  CG        -7.4710   -2.1900   -0.5490 C.3    17  LEU17       0.0000
      3  CD1       -7.5650   -3.1290   -1.8160 C.3    17  LEU17       0.0000
      4  CD2       -7.6340   -3.0650    0.7330 C.3    17  LEU17       0.0000
      5  CB        -9.5330    1.3370    0.3720 C.3    18  ASP18       0.1258
      6  CG       -10.8210    2.1240    0.3740 C.2    18  ASP18       0.3654
      7  OD1      -11.4060    2.2040   -0.7190 O.co2  18  ASP18      -0.2456
      8  OD2      -11.1770    2.7140    1.4220 O.co2  18  ASP18      -0.2456
      9  CB        -5.4130    4.6360    2.5530 C.3    19  ILE19       0.0000
     10  CG2       -4.5050    5.7520    2.8080 C.3    19  ILE19       0.0000
     11  CG1       -6.1410    4.2180    3.8750 C.3    19  ILE19       0.0000
     12  CD1       -5.2560    3.8010    5.0260 C.3    19  ILE19       0.0000
     13  CB        -2.5150    4.5890   -1.3610 C.3    20  ILE20       0.0000
     14  CG2       -1.7230    4.4030   -2.6660 C.3    20  ILE20       0.0000
     15  CG1       -1.9230    5.6330   -0.4200 C.3    20  ILE20       0.0000
     16  CD1       -0.4510    5.5540   -0.0730 C.3    20  ILE20       0.0000
     17  CB        -7.4330    4.0930   -4.5870 C.3    21  TRP21       0.0066
     18  CG        -8.2260    3.2200   -5.4930 C.3    21  TRP21       0.0452
     19  CD1       -9.3870    3.6160   -6.0840 C.3    21  TRP21       0.1165
     20  NE1       -9.8600    2.5750   -6.9160 N.pl3  21  TRP21      -0.2376
     21  CE2       -8.9610    1.5660   -6.9710 C.ar   21  TRP21       0.0614
     22  CZ2       -8.8830    0.4700   -7.8450 C.ar   21  TRP21       0.0158
     23  CH2       -7.7910   -0.4630   -7.6930 C.ar   21  TRP21       0.0013
     24  CZ3       -6.8610   -0.2860   -6.7140 C.ar   21  TRP21      -0.0002
     25  CE3       -6.8910    0.8700   -5.9240 C.ar   21  TRP21      -0.0030
     26  CD2       -7.9350    1.8700   -5.9810 C.ar   21  TRP21      -0.0059
@<TRIPOS>BOND
     1    22    23   ar
     2    22    21   ar
     3    23    24   ar
     4    21    20    1
     5    21    26   ar
     6    24    25   ar
     7    20    19    1
     8    25    26   ar
     9    26    18    1
    10    19    18    1
    11    18    17    1
    12     3     2    1
    13     2     4    1
    14     2     1    1
    15     5     6    1
    16     7     6   ar
    17    13    15    1
    18    13    14    1
    19    15    16    1
    20     6     8   ar
    21     9    11    1
    22     9    10    1
    23    11    12    1
@<TRIPOS>MOLECULE
HTS1204-03362316-01
 44 47 0 0 0
SMALL
USER_CHARGES

@<TRIPOS>ATOM
      1 C1         -6.6171    0.9590   -5.4898 C.ar    1  UNK11      -0.0199
      2 N1         -6.8582    2.3832   -7.1936 N.ar    1  UNK11      -0.3494
      3 C2         -5.2494    1.0249    2.5546 C.2     1  UNK11       0.3028
      4 C3         -6.2529    2.1987   -5.9786 C.ar    1  UNK11       0.0086
      5 C4         -3.7568    1.0786   -3.9468 C.2     1  UNK11       0.2342
      6 C5         -7.5246    0.3957   -6.4521 C.ar    1  UNK11       0.0031
      7 C6         -5.9344    0.4450   -0.9860 C.2     1  UNK11       0.2340
      8 C7         -7.6530    1.3024   -7.5062 C.ar    1  UNK11       0.0491
      9 N2         -5.1139    0.8964    1.2065 N.am    1  UNK11      -0.2879
     10 N3         -4.8166    2.2504    3.0643 N.am    1  UNK11      -0.2856
     11 N4         -5.0654    0.2549   -2.0374 N.am    1  UNK11      -0.3022
     12 N5         -2.7832    1.8227   -3.3238 N.am    1  UNK11      -0.3054
     13 C8         -5.1728    0.9831   -3.3118 C.3     1  UNK11       0.1034
     14 C9         -5.5067   -0.2320    0.3443 C.3     1  UNK11       0.1011
     15 C10        -2.7609    2.2738   -1.9131 C.3     1  UNK11       0.0680
     16 C11        -6.1794    0.2646   -4.2261 C.3     1  UNK11       0.0013
     17 C12        -2.4946    1.1697   -0.8439 C.2     1  UNK11       0.0623
     18 C13        -1.7984    3.4478   -1.6946 C.3     1  UNK11       0.0133
     19 O1         -5.7321    0.1634    3.2880 O.2     1  UNK11      -0.2526
     20 O2         -6.9438    1.1441   -1.0943 O.2     1  UNK11      -0.2738
     21 O3         -3.4754    0.5678   -5.0349 O.2     1  UNK11      -0.2738
     22 N6          0.0530    1.9599   -2.3652 N.ar    1  UNK11      -0.2598
     23 O4         -2.5760   -0.0289   -1.2527 O.co2   1  UNK11      -0.5479
     24 C14        -6.6183   -1.1627    0.8595 C.3     1  UNK11      -0.0236
     25 C15        -0.3232    3.1621   -1.8754 C.ar    1  UNK11       0.0434
     26 O5         -2.4909    1.5793    0.3566 O.co2   1  UNK11      -0.5479
     27 C16        -6.6676    3.5378   -8.0406 C.3     1  UNK11       0.0119
     28 C17        -4.7846    2.3873    4.5208 C.3     1  UNK11       0.0161
     29 C18        -4.4875    3.4211    2.2447 C.3     1  UNK11       0.0161
     30 C19        -8.4610    1.0377   -8.6254 C.ar    1  UNK11      -0.0376
     31 C20        -8.2373   -0.8210   -6.5180 C.ar    1  UNK11      -0.0523
     32 C21        -6.7664   -2.4732    0.0451 C.3     1  UNK11      -0.0446
     33 C22         1.3743    1.6988   -2.4523 C.ar    1  UNK11       0.0279
     34 C23         0.6066    4.1479   -1.5491 C.ar    1  UNK11      -0.0403
     35 C24        -7.5966   -2.3041   -1.2273 C.3     1  UNK11      -0.0626
     36 C25        -7.4103   -3.5570    0.9176 C.3     1  UNK11      -0.0626
     37 C26        -4.5993    3.8062    5.0629 C.3     1  UNK11      -0.0371
     38 C27        -5.6209    4.4490    2.1986 C.3     1  UNK11      -0.0371
     39 C28        -9.0471   -1.0942   -7.6251 C.ar    1  UNK11      -0.0611
     40 C29        -9.1545   -0.1760   -8.6648 C.ar    1  UNK11      -0.0598
     41 C30         2.3596    2.6168   -2.1350 C.ar    1  UNK11      -0.0436
     42 C31         1.9638    3.8719   -1.6894 C.ar    1  UNK11      -0.0586
     43 C32        -5.7531    4.7646    4.7585 C.3     1  UNK11      -0.0516
     44 C33        -6.4975    4.5372    3.4457 C.3     1  UNK11      -0.0516
@<TRIPOS>BOND
     1     2     4   ar
     2     3     9   am
     3     1     4   ar
     4     5    13    1
     5     1     6   ar
     6     7    11   am
     7     6     8   ar
     8     9    14    1
     9     3    10   am
    10    11    13    1
    11     5    12   am
    12    13    16    1
    13     7    14    1
    14    12    15    1
    15     1    16    1
    16    15    17    1
    17    15    18    1
    18     3    19    2
    19     7    20    2
    20     5    21    2
    21    22    25   ar
    22    17    23   ar
    23    14    24    1
    24    18    25    1
    25    17    26   ar
    26     2    27    1
    27    10    28    1
    28    10    29    1
    29     8    30   ar
    30     6    31   ar
    31    24    32    1
    32    22    33   ar
    33    25    34   ar
    34    32    35    1
    35    32    36    1
    36    28    37    1
    37    29    38    1
    38    31    39   ar
    39    39    40   ar
    40    41    42   ar
    41    34    42   ar
    42    37    43    1
    43    38    44    1
    44     2     8   ar
    45    30    40   ar
    46    33    41   ar
    47    43    44    1
@<TRIPOS>MOLECULE
../ET1/ET1_17-21_50CONFORMERS.pdb
 47 48 0 0 0
SMALL
GASTEIGER

@<TRIPOS>ATOM
      1  N         -4.5950    0.2540   -1.3750 N.3    17  LEU17      -0.1231
      2  CA        -5.8680   -0.4060   -1.6470 C.3    17  LEU17       0.1693
      3  CB        -6.1150   -1.4830   -0.5580 C.3    17  LEU17       0.0284
      4  CG        -7.4710   -2.1900   -0.5490 C.3    17  LEU17       0.0019
      5  CD1       -7.5650   -3.1290   -1.8160 C.3    17  LEU17       0.0001
      6  CD2       -7.6340   -3.0650    0.7330 C.3    17  LEU17       0.0001
      7  C         -6.9860    0.6360   -1.6690 C.2    17  LEU17       0.2592
      8  O         -7.6340    0.7430   -2.7370 O.2    17  LEU17      -0.2718
      9  N         -7.2970    1.3320   -0.5610 N.am   18  ASP18      -0.1960
     10  CA        -8.4790    2.2020   -0.3870 C.3    18  ASP18       0.1840
     11  CB        -9.5330    1.3370    0.3720 C.3    18  ASP18       0.1450
     12  CG       -10.8210    2.1240    0.3740 C.2    18  ASP18       0.3671
     13  OD1      -11.4060    2.2040   -0.7190 O.co2  18  ASP18      -0.2456
     14  OD2      -11.1770    2.7140    1.4220 O.co2  18  ASP18      -0.2456
     15  C         -8.0910    3.5840    0.1800 C.2    18  ASP18       0.2622
     16  O         -8.7800    4.5590   -0.1210 O.2    18  ASP18      -0.2715
     17  N         -7.0700    3.6540    1.0290 N.am   19  ILE19      -0.1963
     18  CA        -6.3960    4.9150    1.3660 C.3    19  ILE19       0.1727
     19  CB        -5.4130    4.6360    2.5530 C.3    19  ILE19       0.0290
     20  CG2       -4.5050    5.7520    2.8080 C.3    19  ILE19       0.0023
     21  CG1       -6.1410    4.2180    3.8750 C.3    19  ILE19       0.0022
     22  CD1       -5.2560    3.8010    5.0260 C.3    19  ILE19       0.0001
     23  C         -5.6610    5.3990    0.0870 C.2    19  ILE19       0.2616
     24  O         -5.9120    6.4560   -0.4040 O.2    19  ILE19      -0.2715
     25  N         -4.7450    4.5400   -0.4380 N.am   20  ILE20      -0.1963
     26  CA        -4.0060    4.7800   -1.6650 C.3    20  ILE20       0.1727
     27  CB        -2.5150    4.5890   -1.3610 C.3    20  ILE20       0.0290
     28  CG2       -1.7230    4.4030   -2.6660 C.3    20  ILE20       0.0023
     29  CG1       -1.9230    5.6330   -0.4200 C.3    20  ILE20       0.0022
     30  CD1       -0.4510    5.5540   -0.0730 C.3    20  ILE20       0.0001
     31  C         -4.6610    4.0040   -2.7590 C.2    20  ILE20       0.2617
     32  O         -4.6370    2.7640   -2.7060 O.2    20  ILE20      -0.2715
     33  N         -5.1840    4.7980   -3.7140 N.am   21  TRP21      -0.1941
     34  CA        -5.9280    4.3140   -4.9110 C.3    21  TRP21       0.1982
     35  CB        -7.4330    4.0930   -4.5870 C.3    21  TRP21       0.0394
     36  CG        -8.2260    3.2200   -5.4930 C.3    21  TRP21       0.0475
     37  CD1       -9.3870    3.6160   -6.0840 C.3    21  TRP21       0.1166
     38  NE1       -9.8600    2.5750   -6.9160 N.pl3  21  TRP21      -0.2376
     39  CE2       -8.9610    1.5660   -6.9710 C.ar   21  TRP21       0.0614
     40  CZ2       -8.8830    0.4700   -7.8450 C.ar   21  TRP21       0.0158
     41  CH2       -7.7910   -0.4630   -7.6930 C.ar   21  TRP21       0.0013
     42  CZ3       -6.8610   -0.2860   -6.7140 C.ar   21  TRP21      -0.0002
     43  CE3       -6.8910    0.8700   -5.9240 C.ar   21  TRP21      -0.0030
     44  CD2       -7.9350    1.8700   -5.9810 C.ar   21  TRP21      -0.0059
     45  C         -5.7590    5.3050   -6.0770 C.2    21  TRP21       0.3842
     46  O         -5.6460    4.8080   -7.2450 O.co2  21  TRP21      -0.2437
     47  OXT       -5.7750    6.5610   -5.9010 O.co2  21  TRP21      -0.2437
@<TRIPOS>BOND
     1    40    41   ar
     2    40    39   ar
     3    41    42   ar
     4    39    38    1
     5    39    44   ar
     6    42    43   ar
     7    38    37    1
     8    43    44   ar
     9    44    36    1
    10    37    36    1
    11    36    35    1
    12    47    45   ar
    13     5     4    1
    14    35    34    1
    15    45    34    1
    16    45    46   ar
    17    34    33    1
    18     8     7    2
    19     4     6    1
    20     4     3    1
    21     2     3    1
    22     2     1    1
    23     2     7    1
    24     7     9   am
    25    33    31   am
    26    32    31    2
    27    31    26    1
    28     9    10    1
    29    10    11    1
    30    10    15    1
    31    26    27    1
    32    26    25    1
    33    11    12    1
    34    13    12   ar
    35    27    29    1
    36    27    28    1
    37    29    30    1
    38    16    15    2
    39    15    17   am
    40    12    14   ar
    41    25    23   am
    42    17    18    1
    43    23    24    2
    44    23    18    1
    45    18    19    1
    46    19    21    1
    47    19    20    1
    48    21    22    1
