@<TRIPOS>MOLECULE
../ET1/ET1_17-21_50CONFORMERS_NOBACKBONE.pdb
 26 23 0 0 0
SMALL
GASTEIGER

@<TRIPOS>ATOM
      1  CB        -6.3700   -1.7240   -1.0650 C.3    17  LEU17       0.0000
      2  CG        -7.6800   -2.5150   -1.4070 C.3    17  LEU17       0.0000
      3  CD1       -7.7720   -3.0040   -2.8110 C.3    17  LEU17       0.0000
      4  CD2       -7.9130   -3.7120   -0.4330 C.3    17  LEU17       0.0000
      5  CB        -9.3250    1.8040    0.0230 C.3    18  ASP18       0.1258
      6  CG       -10.4490    2.8760    0.1640 C.2    18  ASP18       0.3654
      7  OD1      -10.3660    3.7280    1.0360 O.co2  18  ASP18      -0.2456
      8  OD2      -11.3160    2.9200   -0.7650 O.co2  18  ASP18      -0.2456
      9  CB        -5.5190    4.6730    2.8600 C.3    19  ILE19       0.0000
     10  CG2       -4.2740    3.6900    2.8780 C.3    19  ILE19       0.0000
     11  CG1       -5.3070    6.0690    3.5040 C.3    19  ILE19       0.0000
     12  CD1       -5.2930    6.0250    5.0400 C.3    19  ILE19       0.0000
     13  CB        -1.9130    5.2240   -1.1980 C.3    20  ILE20       0.0000
     14  CG2       -1.5820    6.4010   -0.2490 C.3    20  ILE20       0.0000
     15  CG1       -1.5350    3.9480   -0.3450 C.3    20  ILE20       0.0000
     16  CD1       -0.0560    3.7320   -0.0390 C.3    20  ILE20       0.0000
     17  CB        -5.1730    4.4740   -5.6410 C.3    21  TRP21       0.0066
     18  CG        -5.4760    3.6370   -6.8280 C.3    21  TRP21       0.0452
     19  CD1       -5.3840    4.0190   -8.1420 C.3    21  TRP21       0.1165
     20  NE1       -5.8470    2.9720   -8.9090 N.pl3  21  TRP21      -0.2376
     21  CE2       -5.9380    1.8220   -8.2000 C.ar   21  TRP21       0.0614
     22  CZ2       -5.9550    0.4600   -8.6010 C.ar   21  TRP21       0.0158
     23  CH2       -6.0020   -0.5440   -7.5800 C.ar   21  TRP21       0.0013
     24  CZ3       -6.0200   -0.1340   -6.2320 C.ar   21  TRP21      -0.0002
     25  CE3       -5.9020    1.1770   -5.8910 C.ar   21  TRP21      -0.0030
     26  CD2       -5.8730    2.1930   -6.8510 C.ar   21  TRP21      -0.0059
@<TRIPOS>BOND
     1    22    23   ar
     2    22    21   ar
     3    23    24   ar
     4    21    20    1
     5    21    26   ar
     6    24    25   ar
     7    20    19    1
     8    25    26   ar
     9    26    18    1
    10    19    18    1
    11    18    17    1
    12     3     2    1
    13     2     4    1
    14     2     1    1
    15     5     6    1
    16     7     6   ar
    17    13    15    1
    18    13    14    1
    19    15    16    1
    20     6     8   ar
    21     9    11    1
    22     9    10    1
    23    11    12    1
@<TRIPOS>MOLECULE
*****
 29 31 0 0 0
SMALL
GASTEIGER

@<TRIPOS>ATOM
      1 BR         -6.1395   -0.2279  -10.5564 Br      1  LIG11      -0.0503
      2 BR         -0.5972    0.2952   -0.2232 Br      1  LIG11      -0.0472
      3 S          -2.7326    2.3838   -4.6810 S.O2    1  LIG11       0.1079
      4 O          -7.1387   -1.0384   -3.8971 O.3     1  LIG11      -0.4724
      5 O          -2.0123    3.4118   -5.3901 O.2     1  LIG11      -0.1383
      6 O          -2.2839    1.9004   -3.4029 O.2     1  LIG11      -0.1383
      7 O          -5.2371   -2.6368   -2.5297 O.3     1  LIG11      -0.4590
      8 N          -2.7839    1.0655   -5.6853 N.3     1  LIG11      -0.1906
      9 N          -4.3363    2.8445   -4.5994 N.pl3   1  LIG11      -0.1891
     10 N          -5.2857    2.3630   -2.5994 N.ar    1  LIG11      -0.2186
     11 N          -6.6758    0.4851   -2.2017 N.ar    1  LIG11      -0.2008
     12 N          -3.2011   -1.6174   -2.8168 N.ar    1  LIG11      -0.2022
     13 N          -4.1677   -1.7475   -0.6326 N.ar    1  LIG11      -0.2022
     14 C          -5.8539    0.8821   -4.4547 C.ar    1  LIG11       0.0848
     15 C          -5.2059    1.9757   -3.8847 C.ar    1  LIG11       0.1532
     16 C          -5.8875    0.5987   -5.9135 C.ar    1  LIG11      -0.0094
     17 C          -6.5444    0.1391   -3.4991 C.ar    1  LIG11       0.2276
     18 C          -6.0638    1.6434   -6.8458 C.ar    1  LIG11      -0.0527
     19 C          -5.7787   -0.7045   -6.4352 C.ar    1  LIG11      -0.0527
     20 C          -7.5511   -1.9491   -2.8704 C.3     1  LIG11       0.1252
     21 C          -6.1223    1.4048   -8.2233 C.ar    1  LIG11      -0.0472
     22 C          -5.8625   -0.9536   -7.8120 C.ar    1  LIG11      -0.0472
     23 C          -6.0325    1.5874   -1.8159 C.ar    1  LIG11       0.1219
     24 C          -6.4737   -2.3788   -1.8623 C.3     1  LIG11       0.1267
     25 C          -6.0303    0.1037   -8.6995 C.ar    1  LIG11       0.0179
     26 C          -4.1742   -1.9698   -1.9604 C.ar    1  LIG11       0.3180
     27 C          -2.1517   -0.9626   -2.2679 C.ar    1  LIG11       0.0483
     28 C          -3.1049   -1.0679   -0.1501 C.ar    1  LIG11       0.0483
     29 C          -2.0576   -0.6463   -0.9324 C.ar    1  LIG11       0.0543
@<TRIPOS>BOND
     1     1    25    1
     2     2    29    1
     3     3     9    1
     4     3     8    1
     5     3     6    2
     6     3     5    2
     7     4    17    1
     8     4    20    1
     9     7    24    1
    10     7    26    1
    11     9    15    1
    12    10    15   ar
    13    10    23   ar
    14    11    17   ar
    15    11    23   ar
    16    12    26   ar
    17    12    27   ar
    18    13    26   ar
    19    13    28   ar
    20    14    15   ar
    21    14    17   ar
    22    16    18   ar
    23    16    19   ar
    24    16    14    1
    25    18    21   ar
    26    19    22   ar
    27    20    24    1
    28    21    25   ar
    29    22    25   ar
    30    27    29   ar
    31    28    29   ar
@<TRIPOS>MOLECULE
../ET1/ET1_17-21_50CONFORMERS.pdb
 47 48 0 0 0
SMALL
GASTEIGER

@<TRIPOS>ATOM
      1  N         -4.6780   -0.0850   -1.5830 N.3    17  LEU17      -0.1231
      2  CA        -5.9780   -0.5970   -2.0100 C.3    17  LEU17       0.1693
      3  CB        -6.3700   -1.7240   -1.0650 C.3    17  LEU17       0.0284
      4  CG        -7.6800   -2.5150   -1.4070 C.3    17  LEU17       0.0019
      5  CD1       -7.7720   -3.0040   -2.8110 C.3    17  LEU17       0.0001
      6  CD2       -7.9130   -3.7120   -0.4330 C.3    17  LEU17       0.0001
      7  C         -6.9780    0.5450   -2.0500 C.2    17  LEU17       0.2592
      8  O         -7.6980    0.7820   -3.0610 O.2    17  LEU17      -0.2718
      9  N         -7.1080    1.2870   -0.9420 N.am   18  ASP18      -0.1960
     10  CA        -8.1380    2.3590   -0.8440 C.3    18  ASP18       0.1840
     11  CB        -9.3250    1.8040    0.0230 C.3    18  ASP18       0.1450
     12  CG       -10.4490    2.8760    0.1640 C.2    18  ASP18       0.3671
     13  OD1      -10.3660    3.7280    1.0360 O.co2  18  ASP18      -0.2456
     14  OD2      -11.3160    2.9200   -0.7650 O.co2  18  ASP18      -0.2456
     15  C         -7.5340    3.6670   -0.2750 C.2    18  ASP18       0.2622
     16  O         -7.8930    4.7610   -0.7510 O.2    18  ASP18      -0.2715
     17  N         -6.6260    3.5880    0.7760 N.am   19  ILE19      -0.1963
     18  CA        -6.0950    4.8210    1.4140 C.3    19  ILE19       0.1727
     19  CB        -5.5190    4.6730    2.8600 C.3    19  ILE19       0.0290
     20  CG2       -4.2740    3.6900    2.8780 C.3    19  ILE19       0.0023
     21  CG1       -5.3070    6.0690    3.5040 C.3    19  ILE19       0.0022
     22  CD1       -5.2930    6.0250    5.0400 C.3    19  ILE19       0.0001
     23  C         -5.0210    5.5530    0.4810 C.2    19  ILE19       0.2616
     24  O         -4.9020    6.7360    0.5180 O.2    19  ILE19      -0.2715
     25  N         -4.2770    4.7900   -0.3470 N.am   20  ILE20      -0.1963
     26  CA        -3.4430    5.2460   -1.5010 C.3    20  ILE20       0.1727
     27  CB        -1.9130    5.2240   -1.1980 C.3    20  ILE20       0.0290
     28  CG2       -1.5820    6.4010   -0.2490 C.3    20  ILE20       0.0023
     29  CG1       -1.5350    3.9480   -0.3450 C.3    20  ILE20       0.0022
     30  CD1       -0.0560    3.7320   -0.0390 C.3    20  ILE20       0.0001
     31  C         -3.6450    4.4150   -2.7420 C.2    20  ILE20       0.2617
     32  O         -4.0330    3.2650   -2.5870 O.2    20  ILE20      -0.2715
     33  N         -3.5090    4.9890   -3.9190 N.am   21  TRP21      -0.1941
     34  CA        -3.7490    4.4630   -5.2570 C.3    21  TRP21       0.1982
     35  CB        -5.1730    4.4740   -5.6410 C.3    21  TRP21       0.0394
     36  CG        -5.4760    3.6370   -6.8280 C.3    21  TRP21       0.0475
     37  CD1       -5.3840    4.0190   -8.1420 C.3    21  TRP21       0.1166
     38  NE1       -5.8470    2.9720   -8.9090 N.pl3  21  TRP21      -0.2376
     39  CE2       -5.9380    1.8220   -8.2000 C.ar   21  TRP21       0.0614
     40  CZ2       -5.9550    0.4600   -8.6010 C.ar   21  TRP21       0.0158
     41  CH2       -6.0020   -0.5440   -7.5800 C.ar   21  TRP21       0.0013
     42  CZ3       -6.0200   -0.1340   -6.2320 C.ar   21  TRP21      -0.0002
     43  CE3       -5.9020    1.1770   -5.8910 C.ar   21  TRP21      -0.0030
     44  CD2       -5.8730    2.1930   -6.8510 C.ar   21  TRP21      -0.0059
     45  C         -2.9100    5.2210   -6.2490 C.2    21  TRP21       0.3842
     46  O         -2.9870    6.4280   -6.3610 O.co2  21  TRP21      -0.2437
     47  OXT       -1.9860    4.5890   -6.8430 O.co2  21  TRP21      -0.2437
@<TRIPOS>BOND
     1    40    41   ar
     2    40    39   ar
     3    41    42   ar
     4    39    38    1
     5    39    44   ar
     6    42    43   ar
     7    38    37    1
     8    43    44   ar
     9    44    36    1
    10    37    36    1
    11    36    35    1
    12    47    45   ar
    13     5     4    1
    14    35    34    1
    15    45    34    1
    16    45    46   ar
    17    34    33    1
    18     8     7    2
    19     4     6    1
    20     4     3    1
    21     2     3    1
    22     2     1    1
    23     2     7    1
    24     7     9   am
    25    33    31   am
    26    32    31    2
    27    31    26    1
    28     9    10    1
    29    10    11    1
    30    10    15    1
    31    26    27    1
    32    26    25    1
    33    11    12    1
    34    13    12   ar
    35    27    29    1
    36    27    28    1
    37    29    30    1
    38    16    15    2
    39    15    17   am
    40    12    14   ar
    41    25    23   am
    42    17    18    1
    43    23    24    2
    44    23    18    1
    45    18    19    1
    46    19    21    1
    47    19    20    1
    48    21    22    1
