@<TRIPOS>MOLECULE
../ET1/ET1_17-21_50CONFORMERS_NOBACKBONE.pdb
 26 23 0 0 0
SMALL
GASTEIGER

@<TRIPOS>ATOM
      1  CB        -5.6540   -1.9730   -1.0330 C.3    17  LEU17       0.0000
      2  CG        -6.8860   -2.8850   -0.9650 C.3    17  LEU17       0.0000
      3  CD1       -6.9550   -3.8500   -2.1550 C.3    17  LEU17       0.0000
      4  CD2       -6.9280   -3.7170    0.2730 C.3    17  LEU17       0.0000
      5  CB        -9.1320    0.6990    0.2330 C.3    18  ASP18       0.1258
      6  CG       -10.2450    1.5340    0.9100 C.2    18  ASP18       0.3654
      7  OD1      -10.0780    1.9510    2.0560 O.co2  18  ASP18      -0.2456
      8  OD2      -11.2910    1.7150    0.2230 O.co2  18  ASP18      -0.2456
      9  CB        -5.7270    3.7760    3.1080 C.3    19  ILE19       0.0000
     10  CG2       -4.9660    4.9240    3.7730 C.3    19  ILE19       0.0000
     11  CG1       -6.6700    3.0380    4.0790 C.3    19  ILE19       0.0000
     12  CD1       -5.9480    2.4560    5.2780 C.3    19  ILE19       0.0000
     13  CB        -2.5590    5.4580   -0.6350 C.3    20  ILE20       0.0000
     14  CG2       -2.3730    6.4550    0.5350 C.3    20  ILE20       0.0000
     15  CG1       -1.7080    4.1930   -0.7000 C.3    20  ILE20       0.0000
     16  CD1       -0.1540    4.5080   -0.7350 C.3    20  ILE20       0.0000
     17  CB        -6.4690    4.8360   -5.1330 C.3    21  TRP21       0.0066
     18  CG        -6.7110    4.2340   -6.4470 C.3    21  TRP21       0.0452
     19  CD1       -7.2580    4.8790   -7.5230 C.3    21  TRP21       0.1165
     20  NE1       -7.4920    3.9990   -8.5900 N.pl3  21  TRP21      -0.2376
     21  CE2       -7.0850    2.7260   -8.1970 C.ar   21  TRP21       0.0614
     22  CZ2       -7.2620    1.4930   -8.7590 C.ar   21  TRP21       0.0158
     23  CH2       -7.0900    0.3620   -7.9570 C.ar   21  TRP21       0.0013
     24  CZ3       -6.6660    0.3940   -6.6190 C.ar   21  TRP21      -0.0002
     25  CE3       -6.4060    1.6770   -6.0820 C.ar   21  TRP21      -0.0030
     26  CD2       -6.6250    2.8570   -6.8110 C.ar   21  TRP21      -0.0059
@<TRIPOS>BOND
     1    22    23   ar
     2    22    21   ar
     3    23    24   ar
     4    21    20    1
     5    21    26   ar
     6    24    25   ar
     7    20    19    1
     8    25    26   ar
     9    26    18    1
    10    19    18    1
    11    18    17    1
    12     3     2    1
    13     2     4    1
    14     2     1    1
    15     5     6    1
    16     7     6   ar
    17    13    15    1
    18    13    14    1
    19    15    16    1
    20     6     8   ar
    21     9    11    1
    22     9    10    1
    23    11    12    1
@<TRIPOS>MOLECULE
108002
 38 42 0 0 0
SMALL
GASTEIGER

@<TRIPOS>ATOM
      1 O          -6.6075    6.4466   -6.9404 O.co2   1  LIG11      -0.5495
      2 O          -8.6215    5.4103   -6.7931 O.co2   1  LIG11      -0.5495
      3 O          -1.5497    3.8117   -2.6084 O.3     1  LIG11      -0.4920
      4 O          -6.7585    2.9051   -2.6969 O.3     1  LIG11      -0.4858
      5 O          -6.7953   -1.1809   -6.1482 O.3     1  LIG11      -0.4526
      6 O          -7.8834   -1.1731   -8.3006 O.3     1  LIG11      -0.4526
      7 O          -8.8212    5.9012    0.5394 O.3     1  LIG11      -0.4950
      8 O          -7.0056    1.2893   -0.3649 O.co2   1  LIG11      -0.5463
      9 O          -7.8493   -0.3366   -1.7127 O.co2   1  LIG11      -0.5463
     10 C          -6.8059    4.5031   -5.5715 C.3     1  LIG11       0.0203
     11 C          -6.0536    5.1982   -4.4173 C.3     1  LIG11       0.0218
     12 C          -5.7615    3.7061   -6.3933 C.3     1  LIG11       0.0184
     13 C          -4.7474    4.4442   -4.3493 C.ar    1  LIG11      -0.0320
     14 C          -4.5834    3.6033   -5.4483 C.ar    1  LIG11      -0.0353
     15 C          -6.3244    2.3885   -6.9114 C.ar    1  LIG11      -0.0356
     16 C          -6.8244    5.2723   -3.1022 C.ar    1  LIG11       0.0026
     17 C          -7.3962    5.5555   -6.5120 C.2     1  LIG11       0.0466
     18 C          -3.7568    4.5649   -3.3801 C.ar    1  LIG11      -0.0159
     19 C          -3.4225    2.8540   -5.5878 C.ar    1  LIG11      -0.0542
     20 C          -2.5915    3.8074   -3.5010 C.ar    1  LIG11       0.1208
     21 C          -7.1586    4.1605   -2.3074 C.ar    1  LIG11       0.1283
     22 C          -6.2626    1.1967   -6.1686 C.ar    1  LIG11      -0.0124
     23 C          -6.9756    2.3791   -8.1701 C.ar    1  LIG11      -0.0543
     24 C          -2.4390    2.9427   -4.5960 C.ar    1  LIG11      -0.0196
     25 C          -7.2127    6.5496   -2.6506 C.ar    1  LIG11      -0.0510
     26 C          -6.8008    0.0532   -6.7197 C.ar    1  LIG11       0.1665
     27 C          -7.5226    1.2063   -8.7003 C.ar    1  LIG11      -0.0159
     28 C          -7.8059    4.3478   -1.0755 C.ar    1  LIG11       0.0221
     29 C          -7.8791    6.7185   -1.4345 C.ar    1  LIG11      -0.0194
     30 C          -7.4142    0.0563   -7.9504 C.ar    1  LIG11       0.1662
     31 C          -8.1793    5.6177   -0.6392 C.ar    1  LIG11       0.1236
     32 C          -1.4274    4.9680   -1.7777 C.3     1  LIG11       0.0893
     33 C          -7.5549   -1.9255   -7.1126 C.3     1  LIG11       0.2332
     34 C          -7.7728    1.8779   -2.5775 C.3     1  LIG11       0.1287
     35 C          -2.1084    4.7635   -0.4256 C.3     1  LIG11      -0.0215
     36 C          -7.4828    0.8528   -1.4537 C.2     1  LIG11       0.0789
     37 C          -9.2738    4.7710    1.2794 C.3     1  LIG11       0.0788
     38 C          -2.0405    6.0248    0.4197 C.3     1  LIG11      -0.0622
@<TRIPOS>BOND
     1     1    17   ar
     2     2    17   ar
     3     3    20    1
     4     3    32    1
     5     4    21    1
     6     4    34    1
     7     5    26    1
     8     5    33    1
     9     6    30    1
    10     6    33    1
    11     7    31    1
    12     7    37    1
    13     8    36   ar
    14     9    36   ar
    15    10    11    1
    16    10    12    1
    17    10    17    1
    18    11    13    1
    19    11    16    1
    20    12    14    1
    21    12    15    1
    22    13    14   ar
    23    13    18   ar
    24    14    19   ar
    25    15    22   ar
    26    15    23   ar
    27    16    21   ar
    28    16    25   ar
    29    18    20   ar
    30    19    24   ar
    31    20    24   ar
    32    21    28   ar
    33    22    26   ar
    34    23    27   ar
    35    25    29   ar
    36    26    30   ar
    37    27    30   ar
    38    28    31   ar
    39    29    31   ar
    40    32    35    1
    41    34    36    1
    42    35    38    1
@<TRIPOS>MOLECULE
../ET1/ET1_17-21_50CONFORMERS.pdb
 47 48 0 0 0
SMALL
GASTEIGER

@<TRIPOS>ATOM
      1  N         -4.3950   -0.1070   -1.8460 N.3    17  LEU17      -0.1231
      2  CA        -5.6300   -0.8860   -2.0720 C.3    17  LEU17       0.1693
      3  CB        -5.6540   -1.9730   -1.0330 C.3    17  LEU17       0.0284
      4  CG        -6.8860   -2.8850   -0.9650 C.3    17  LEU17       0.0019
      5  CD1       -6.9550   -3.8500   -2.1550 C.3    17  LEU17       0.0001
      6  CD2       -6.9280   -3.7170    0.2730 C.3    17  LEU17       0.0001
      7  C         -6.7880    0.1640   -2.0230 C.2    17  LEU17       0.2592
      8  O         -7.5520    0.3120   -2.9720 O.2    17  LEU17      -0.2718
      9  N         -6.9460    0.8160   -0.8370 N.am   18  ASP18      -0.1960
     10  CA        -8.1680    1.5850   -0.5860 C.3    18  ASP18       0.1840
     11  CB        -9.1320    0.6990    0.2330 C.3    18  ASP18       0.1450
     12  CG       -10.2450    1.5340    0.9100 C.2    18  ASP18       0.3671
     13  OD1      -10.0780    1.9510    2.0560 O.co2  18  ASP18      -0.2456
     14  OD2      -11.2910    1.7150    0.2230 O.co2  18  ASP18      -0.2456
     15  C         -7.8700    2.9380    0.1710 C.2    18  ASP18       0.2622
     16  O         -8.3820    3.9960   -0.1640 O.2    18  ASP18      -0.2715
     17  N         -7.0200    2.9490    1.2190 N.am   19  ILE19      -0.1963
     18  CA        -6.5440    4.2230    1.8820 C.3    19  ILE19       0.1727
     19  CB        -5.7270    3.7760    3.1080 C.3    19  ILE19       0.0290
     20  CG2       -4.9660    4.9240    3.7730 C.3    19  ILE19       0.0023
     21  CG1       -6.6700    3.0380    4.0790 C.3    19  ILE19       0.0022
     22  CD1       -5.9480    2.4560    5.2780 C.3    19  ILE19       0.0001
     23  C         -5.7610    5.1170    0.9190 C.2    19  ILE19       0.2616
     24  O         -6.0590    6.3210    0.7540 O.2    19  ILE19      -0.2715
     25  N         -4.8130    4.4940    0.1790 N.am   20  ILE20      -0.1963
     26  CA        -4.0840    5.2030   -0.9320 C.3    20  ILE20       0.1727
     27  CB        -2.5590    5.4580   -0.6350 C.3    20  ILE20       0.0290
     28  CG2       -2.3730    6.4550    0.5350 C.3    20  ILE20       0.0023
     29  CG1       -1.7080    4.1930   -0.7000 C.3    20  ILE20       0.0022
     30  CD1       -0.1540    4.5080   -0.7350 C.3    20  ILE20       0.0001
     31  C         -4.4220    4.5550   -2.2960 C.2    20  ILE20       0.2617
     32  O         -4.1670    3.3870   -2.4630 O.2    20  ILE20      -0.2715
     33  N         -4.8430    5.3260   -3.2730 N.am   21  TRP21      -0.1941
     34  CA        -4.9870    5.0200   -4.6800 C.3    21  TRP21       0.1982
     35  CB        -6.4690    4.8360   -5.1330 C.3    21  TRP21       0.0394
     36  CG        -6.7110    4.2340   -6.4470 C.3    21  TRP21       0.0475
     37  CD1       -7.2580    4.8790   -7.5230 C.3    21  TRP21       0.1166
     38  NE1       -7.4920    3.9990   -8.5900 N.pl3  21  TRP21      -0.2376
     39  CE2       -7.0850    2.7260   -8.1970 C.ar   21  TRP21       0.0614
     40  CZ2       -7.2620    1.4930   -8.7590 C.ar   21  TRP21       0.0158
     41  CH2       -7.0900    0.3620   -7.9570 C.ar   21  TRP21       0.0013
     42  CZ3       -6.6660    0.3940   -6.6190 C.ar   21  TRP21      -0.0002
     43  CE3       -6.4060    1.6770   -6.0820 C.ar   21  TRP21      -0.0030
     44  CD2       -6.6250    2.8570   -6.8110 C.ar   21  TRP21      -0.0059
     45  C         -4.3080    5.9580   -5.5320 C.2    21  TRP21       0.3842
     46  O         -4.3710    7.1530   -5.3290 O.co2  21  TRP21      -0.2437
     47  OXT       -3.5940    5.5140   -6.4740 O.co2  21  TRP21      -0.2437
@<TRIPOS>BOND
     1    40    41   ar
     2    40    39   ar
     3    41    42   ar
     4    39    38    1
     5    39    44   ar
     6    42    43   ar
     7    38    37    1
     8    43    44   ar
     9    44    36    1
    10    37    36    1
    11    36    35    1
    12    47    45   ar
    13     5     4    1
    14    35    34    1
    15    45    34    1
    16    45    46   ar
    17    34    33    1
    18     8     7    2
    19     4     6    1
    20     4     3    1
    21     2     3    1
    22     2     1    1
    23     2     7    1
    24     7     9   am
    25    33    31   am
    26    32    31    2
    27    31    26    1
    28     9    10    1
    29    10    11    1
    30    10    15    1
    31    26    27    1
    32    26    25    1
    33    11    12    1
    34    13    12   ar
    35    27    29    1
    36    27    28    1
    37    29    30    1
    38    16    15    2
    39    15    17   am
    40    12    14   ar
    41    25    23   am
    42    17    18    1
    43    23    24    2
    44    23    18    1
    45    18    19    1
    46    19    21    1
    47    19    20    1
    48    21    22    1
