@<TRIPOS>MOLECULE
../ET1/ET1_17-21_50CONFORMERS_NOBACKBONE.pdb
 26 23 0 0 0
SMALL
GASTEIGER

@<TRIPOS>ATOM
      1  CB        -5.6540   -1.9730   -1.0330 C.3    17  LEU17       0.0000
      2  CG        -6.8860   -2.8850   -0.9650 C.3    17  LEU17       0.0000
      3  CD1       -6.9550   -3.8500   -2.1550 C.3    17  LEU17       0.0000
      4  CD2       -6.9280   -3.7170    0.2730 C.3    17  LEU17       0.0000
      5  CB        -9.1320    0.6990    0.2330 C.3    18  ASP18       0.1258
      6  CG       -10.2450    1.5340    0.9100 C.2    18  ASP18       0.3654
      7  OD1      -10.0780    1.9510    2.0560 O.co2  18  ASP18      -0.2456
      8  OD2      -11.2910    1.7150    0.2230 O.co2  18  ASP18      -0.2456
      9  CB        -5.7270    3.7760    3.1080 C.3    19  ILE19       0.0000
     10  CG2       -4.9660    4.9240    3.7730 C.3    19  ILE19       0.0000
     11  CG1       -6.6700    3.0380    4.0790 C.3    19  ILE19       0.0000
     12  CD1       -5.9480    2.4560    5.2780 C.3    19  ILE19       0.0000
     13  CB        -2.5590    5.4580   -0.6350 C.3    20  ILE20       0.0000
     14  CG2       -2.3730    6.4550    0.5350 C.3    20  ILE20       0.0000
     15  CG1       -1.7080    4.1930   -0.7000 C.3    20  ILE20       0.0000
     16  CD1       -0.1540    4.5080   -0.7350 C.3    20  ILE20       0.0000
     17  CB        -6.4690    4.8360   -5.1330 C.3    21  TRP21       0.0066
     18  CG        -6.7110    4.2340   -6.4470 C.3    21  TRP21       0.0452
     19  CD1       -7.2580    4.8790   -7.5230 C.3    21  TRP21       0.1165
     20  NE1       -7.4920    3.9990   -8.5900 N.pl3  21  TRP21      -0.2376
     21  CE2       -7.0850    2.7260   -8.1970 C.ar   21  TRP21       0.0614
     22  CZ2       -7.2620    1.4930   -8.7590 C.ar   21  TRP21       0.0158
     23  CH2       -7.0900    0.3620   -7.9570 C.ar   21  TRP21       0.0013
     24  CZ3       -6.6660    0.3940   -6.6190 C.ar   21  TRP21      -0.0002
     25  CE3       -6.4060    1.6770   -6.0820 C.ar   21  TRP21      -0.0030
     26  CD2       -6.6250    2.8570   -6.8110 C.ar   21  TRP21      -0.0059
@<TRIPOS>BOND
     1    22    23   ar
     2    22    21   ar
     3    23    24   ar
     4    21    20    1
     5    21    26   ar
     6    24    25   ar
     7    20    19    1
     8    25    26   ar
     9    26    18    1
    10    19    18    1
    11    18    17    1
    12     3     2    1
    13     2     4    1
    14     2     1    1
    15     5     6    1
    16     7     6   ar
    17    13    15    1
    18    13    14    1
    19    15    16    1
    20     6     8   ar
    21     9    11    1
    22     9    10    1
    23    11    12    1
@<TRIPOS>MOLECULE
HTS1204-03362316-01
 44 47 0 0 0
SMALL
USER_CHARGES

@<TRIPOS>ATOM
      1 C1         -5.6881    1.4611   -5.3918 C.ar    1  UNK11      -0.0199
      2 N1         -5.7725    3.1889   -6.8049 N.ar    1  UNK11      -0.3494
      3 C2         -5.3387   -0.0367    2.6221 C.2     1  UNK11       0.3028
      4 C3         -5.3166    2.7783   -5.5800 C.ar    1  UNK11       0.0086
      5 C4         -3.0500    1.3188   -3.4954 C.2     1  UNK11       0.2342
      6 C5         -6.4448    1.0843   -6.5547 C.ar    1  UNK11       0.0031
      7 C6         -5.5524    0.0812   -1.0223 C.2     1  UNK11       0.2340
      8 C7         -6.4775    2.1787   -7.4212 C.ar    1  UNK11       0.0491
      9 N2         -5.0309    0.1048    1.3039 N.am    1  UNK11      -0.2879
     10 N3         -5.0231    1.0710    3.4110 N.am    1  UNK11      -0.2856
     11 N4         -4.5520    0.1153   -1.9683 N.am    1  UNK11      -0.3022
     12 N5         -2.1928    1.9407   -2.6189 N.am    1  UNK11      -0.3054
     13 C8         -4.5291    1.0783   -3.0809 C.3     1  UNK11       0.1034
     14 C9         -5.2668   -0.8377    0.1962 C.3     1  UNK11       0.1011
     15 C10        -2.3650    2.1055   -1.1569 C.3     1  UNK11       0.0680
     16 C11        -5.3837    0.5384   -4.2400 C.3     1  UNK11       0.0013
     17 C12        -2.1896    0.8168   -0.2959 C.2     1  UNK11       0.0623
     18 C13        -1.4858    3.2282   -0.5922 C.3     1  UNK11       0.0133
     19 O1         -5.8736   -1.0331    3.1060 O.2     1  UNK11      -0.2526
     20 O2         -6.5680    0.7723   -1.1241 O.2     1  UNK11      -0.2738
     21 O3         -2.6144    1.0366   -4.6156 O.2     1  UNK11      -0.2738
     22 N6          0.4937    1.9303   -1.2905 N.ar    1  UNK11      -0.2598
     23 O4         -2.1705   -0.2790   -0.9356 O.co2   1  UNK11      -0.5479
     24 C14        -6.3952   -1.8687    0.3726 C.3     1  UNK11      -0.0236
     25 C15         0.0107    3.0066   -0.6310 C.ar    1  UNK11       0.0434
     26 O5         -2.3523    0.9820    0.9512 O.co2   1  UNK11      -0.5479
     27 C16        -5.5249    4.4905   -7.3806 C.3     1  UNK11       0.0119
     28 C17        -5.1786    0.9190    4.8580 C.3     1  UNK11       0.0161
     29 C18        -4.6422    2.3851    2.8830 C.3     1  UNK11       0.0161
     30 C19        -7.1281    2.1271   -8.6661 C.ar    1  UNK11      -0.0376
     31 C20        -7.0937   -0.1065   -6.9467 C.ar    1  UNK11      -0.0523
     32 C21        -6.3871   -2.9954   -0.6919 C.3     1  UNK11      -0.0446
     33 C22         1.8250    1.7119   -1.2535 C.ar    1  UNK11       0.0279
     34 C23         0.8517    3.9230   -0.0021 C.ar    1  UNK11      -0.0403
     35 C24        -7.0583   -2.5919   -2.0048 C.3     1  UNK11      -0.0626
     36 C25        -7.0903   -4.2395   -0.1368 C.3     1  UNK11      -0.0626
     37 C26        -5.1203    2.2061    5.6834 C.3     1  UNK11      -0.0371
     38 C27        -5.8017    3.3843    2.8891 C.3     1  UNK11      -0.0371
     39 C28        -7.7472   -0.1688   -8.1816 C.ar    1  UNK11      -0.0611
     40 C29        -7.7613    0.9343   -9.0292 C.ar    1  UNK11      -0.0598
     41 C30         2.7249    2.5645   -0.6392 C.ar    1  UNK11      -0.0436
     42 C31         2.2258    3.7011   -0.0149 C.ar    1  UNK11      -0.0586
     43 C32        -6.2651    3.1877    5.4222 C.3     1  UNK11      -0.0516
     44 C33        -6.8300    3.2117    4.0046 C.3     1  UNK11      -0.0516
@<TRIPOS>BOND
     1     2     4   ar
     2     3     9   am
     3     1     4   ar
     4     5    13    1
     5     1     6   ar
     6     7    11   am
     7     6     8   ar
     8     9    14    1
     9     3    10   am
    10    11    13    1
    11     5    12   am
    12    13    16    1
    13     7    14    1
    14    12    15    1
    15     1    16    1
    16    15    17    1
    17    15    18    1
    18     3    19    2
    19     7    20    2
    20     5    21    2
    21    22    25   ar
    22    17    23   ar
    23    14    24    1
    24    18    25    1
    25    17    26   ar
    26     2    27    1
    27    10    28    1
    28    10    29    1
    29     8    30   ar
    30     6    31   ar
    31    24    32    1
    32    22    33   ar
    33    25    34   ar
    34    32    35    1
    35    32    36    1
    36    28    37    1
    37    29    38    1
    38    31    39   ar
    39    39    40   ar
    40    41    42   ar
    41    34    42   ar
    42    37    43    1
    43    38    44    1
    44     2     8   ar
    45    30    40   ar
    46    33    41   ar
    47    43    44    1
@<TRIPOS>MOLECULE
../ET1/ET1_17-21_50CONFORMERS.pdb
 47 48 0 0 0
SMALL
GASTEIGER

@<TRIPOS>ATOM
      1  N         -4.3950   -0.1070   -1.8460 N.3    17  LEU17      -0.1231
      2  CA        -5.6300   -0.8860   -2.0720 C.3    17  LEU17       0.1693
      3  CB        -5.6540   -1.9730   -1.0330 C.3    17  LEU17       0.0284
      4  CG        -6.8860   -2.8850   -0.9650 C.3    17  LEU17       0.0019
      5  CD1       -6.9550   -3.8500   -2.1550 C.3    17  LEU17       0.0001
      6  CD2       -6.9280   -3.7170    0.2730 C.3    17  LEU17       0.0001
      7  C         -6.7880    0.1640   -2.0230 C.2    17  LEU17       0.2592
      8  O         -7.5520    0.3120   -2.9720 O.2    17  LEU17      -0.2718
      9  N         -6.9460    0.8160   -0.8370 N.am   18  ASP18      -0.1960
     10  CA        -8.1680    1.5850   -0.5860 C.3    18  ASP18       0.1840
     11  CB        -9.1320    0.6990    0.2330 C.3    18  ASP18       0.1450
     12  CG       -10.2450    1.5340    0.9100 C.2    18  ASP18       0.3671
     13  OD1      -10.0780    1.9510    2.0560 O.co2  18  ASP18      -0.2456
     14  OD2      -11.2910    1.7150    0.2230 O.co2  18  ASP18      -0.2456
     15  C         -7.8700    2.9380    0.1710 C.2    18  ASP18       0.2622
     16  O         -8.3820    3.9960   -0.1640 O.2    18  ASP18      -0.2715
     17  N         -7.0200    2.9490    1.2190 N.am   19  ILE19      -0.1963
     18  CA        -6.5440    4.2230    1.8820 C.3    19  ILE19       0.1727
     19  CB        -5.7270    3.7760    3.1080 C.3    19  ILE19       0.0290
     20  CG2       -4.9660    4.9240    3.7730 C.3    19  ILE19       0.0023
     21  CG1       -6.6700    3.0380    4.0790 C.3    19  ILE19       0.0022
     22  CD1       -5.9480    2.4560    5.2780 C.3    19  ILE19       0.0001
     23  C         -5.7610    5.1170    0.9190 C.2    19  ILE19       0.2616
     24  O         -6.0590    6.3210    0.7540 O.2    19  ILE19      -0.2715
     25  N         -4.8130    4.4940    0.1790 N.am   20  ILE20      -0.1963
     26  CA        -4.0840    5.2030   -0.9320 C.3    20  ILE20       0.1727
     27  CB        -2.5590    5.4580   -0.6350 C.3    20  ILE20       0.0290
     28  CG2       -2.3730    6.4550    0.5350 C.3    20  ILE20       0.0023
     29  CG1       -1.7080    4.1930   -0.7000 C.3    20  ILE20       0.0022
     30  CD1       -0.1540    4.5080   -0.7350 C.3    20  ILE20       0.0001
     31  C         -4.4220    4.5550   -2.2960 C.2    20  ILE20       0.2617
     32  O         -4.1670    3.3870   -2.4630 O.2    20  ILE20      -0.2715
     33  N         -4.8430    5.3260   -3.2730 N.am   21  TRP21      -0.1941
     34  CA        -4.9870    5.0200   -4.6800 C.3    21  TRP21       0.1982
     35  CB        -6.4690    4.8360   -5.1330 C.3    21  TRP21       0.0394
     36  CG        -6.7110    4.2340   -6.4470 C.3    21  TRP21       0.0475
     37  CD1       -7.2580    4.8790   -7.5230 C.3    21  TRP21       0.1166
     38  NE1       -7.4920    3.9990   -8.5900 N.pl3  21  TRP21      -0.2376
     39  CE2       -7.0850    2.7260   -8.1970 C.ar   21  TRP21       0.0614
     40  CZ2       -7.2620    1.4930   -8.7590 C.ar   21  TRP21       0.0158
     41  CH2       -7.0900    0.3620   -7.9570 C.ar   21  TRP21       0.0013
     42  CZ3       -6.6660    0.3940   -6.6190 C.ar   21  TRP21      -0.0002
     43  CE3       -6.4060    1.6770   -6.0820 C.ar   21  TRP21      -0.0030
     44  CD2       -6.6250    2.8570   -6.8110 C.ar   21  TRP21      -0.0059
     45  C         -4.3080    5.9580   -5.5320 C.2    21  TRP21       0.3842
     46  O         -4.3710    7.1530   -5.3290 O.co2  21  TRP21      -0.2437
     47  OXT       -3.5940    5.5140   -6.4740 O.co2  21  TRP21      -0.2437
@<TRIPOS>BOND
     1    40    41   ar
     2    40    39   ar
     3    41    42   ar
     4    39    38    1
     5    39    44   ar
     6    42    43   ar
     7    38    37    1
     8    43    44   ar
     9    44    36    1
    10    37    36    1
    11    36    35    1
    12    47    45   ar
    13     5     4    1
    14    35    34    1
    15    45    34    1
    16    45    46   ar
    17    34    33    1
    18     8     7    2
    19     4     6    1
    20     4     3    1
    21     2     3    1
    22     2     1    1
    23     2     7    1
    24     7     9   am
    25    33    31   am
    26    32    31    2
    27    31    26    1
    28     9    10    1
    29    10    11    1
    30    10    15    1
    31    26    27    1
    32    26    25    1
    33    11    12    1
    34    13    12   ar
    35    27    29    1
    36    27    28    1
    37    29    30    1
    38    16    15    2
    39    15    17   am
    40    12    14   ar
    41    25    23   am
    42    17    18    1
    43    23    24    2
    44    23    18    1
    45    18    19    1
    46    19    21    1
    47    19    20    1
    48    21    22    1
