@<TRIPOS>MOLECULE
../ET1/ET1_17-21_50CONFORMERS_NOBACKBONE.pdb
 26 23 0 0 0
SMALL
GASTEIGER

@<TRIPOS>ATOM
      1  CB        -5.6090   -2.1190   -0.0730 C.3    17  LEU17       0.0000
      2  CG        -6.8010   -2.9380    0.5390 C.3    17  LEU17       0.0000
      3  CD1       -7.5860   -3.5580   -0.5610 C.3    17  LEU17       0.0000
      4  CD2       -6.1610   -3.9960    1.4440 C.3    17  LEU17       0.0000
      5  CB        -8.9800    0.7900    1.8180 C.3    18  ASP18       0.1258
      6  CG       -10.1050    1.6830    2.3700 C.2    18  ASP18       0.3654
      7  OD1       -9.7710    2.5990    3.1630 O.co2  18  ASP18      -0.2456
      8  OD2      -11.2830    1.5600    2.0180 O.co2  18  ASP18      -0.2456
      9  CB        -5.1350    4.2480    2.7190 C.3    19  ILE19       0.0000
     10  CG2       -4.6780    5.6390    3.1660 C.3    19  ILE19       0.0000
     11  CG1       -5.4830    3.5270    4.0300 C.3    19  ILE19       0.0000
     12  CD1       -6.6190    4.1350    4.9440 C.3    19  ILE19       0.0000
     13  CB        -3.2680    5.9110   -1.6200 C.3    20  ILE20       0.0000
     14  CG2       -3.0520    6.6380   -0.2870 C.3    20  ILE20       0.0000
     15  CG1       -2.2270    4.7520   -1.7430 C.3    20  ILE20       0.0000
     16  CD1       -0.7750    5.0960   -1.7800 C.3    20  ILE20       0.0000
     17  CB        -7.2070    4.5150   -5.5870 C.3    21  TRP21       0.0066
     18  CG        -8.0110    3.6630   -4.7300 C.3    21  TRP21       0.0452
     19  CD1       -7.5610    2.5780   -4.0350 C.3    21  TRP21       0.1165
     20  NE1       -8.5580    2.0360   -3.2140 N.pl3  21  TRP21      -0.2376
     21  CE2       -9.6780    2.7840   -3.3310 C.ar   21  TRP21       0.0614
     22  CZ2      -10.9600    2.6510   -2.7480 C.ar   21  TRP21       0.0158
     23  CH2      -12.0440    3.5240   -3.0490 C.ar   21  TRP21       0.0013
     24  CZ3      -11.8460    4.4990   -4.0270 C.ar   21  TRP21      -0.0002
     25  CE3      -10.5290    4.6990   -4.4910 C.ar   21  TRP21      -0.0030
     26  CD2       -9.4110    3.8340   -4.2710 C.ar   21  TRP21      -0.0059
@<TRIPOS>BOND
     1    22    23   ar
     2    22    21   ar
     3    23    24   ar
     4    21    20    1
     5    21    26   ar
     6    24    25   ar
     7    20    19    1
     8    25    26   ar
     9    26    18    1
    10    19    18    1
    11    18    17    1
    12     3     2    1
    13     2     4    1
    14     2     1    1
    15     5     6    1
    16     7     6   ar
    17    13    15    1
    18    13    14    1
    19    15    16    1
    20     6     8   ar
    21     9    11    1
    22     9    10    1
    23    11    12    1
@<TRIPOS>MOLECULE
159594
 37 40 0 0 0
SMALL
GASTEIGER

@<TRIPOS>ATOM
      1 O          -6.2981    2.8360   -6.5704 O.co2   1  LIG11      -0.5493
      2 O          -6.8530    4.5842   -7.9311 O.co2   1  LIG11      -0.5493
      3 O         -12.4964    6.1147   -3.9876 O.3     1  LIG11      -0.4526
      4 O          -6.6835    4.2006   -0.8645 O.2     1  LIG11      -0.2697
      5 O         -13.5286    4.2915   -2.7953 O.3     1  LIG11      -0.4526
      6 O          -5.6786   10.7721   -5.2632 O.3     1  LIG11      -0.4951
      7 N          -6.6481    4.5102   -3.5701 N.3     1  LIG11       0.2481
      8 N          -4.4089    4.1399   -0.4978 N.am    1  LIG11      -0.2971
      9 C          -7.6906    4.5403   -5.7406 C.3     1  LIG11       0.0574
     10 C          -8.3358    3.4423   -4.8834 C.3     1  LIG11       0.0378
     11 C          -6.5190    5.1309   -4.9551 C.3     1  LIG11       0.0143
     12 C          -7.2681    3.1565   -3.8183 C.3     1  LIG11      -0.0230
     13 C          -9.6985    3.7329   -4.2534 C.ar    1  LIG11      -0.0347
     14 C          -6.4254    6.6527   -4.9653 C.ar    1  LIG11       0.0011
     15 C          -5.3338    4.4673   -2.8159 C.3     1  LIG11       0.0468
     16 C          -6.8955    3.9055   -6.8737 C.2     1  LIG11       0.0513
     17 C         -10.3970    4.9410   -4.4075 C.ar    1  LIG11      -0.0125
     18 C          -5.5328    4.2617   -1.3109 C.2     1  LIG11       0.2608
     19 C         -10.3316    2.6728   -3.5448 C.ar    1  LIG11      -0.0544
     20 C          -5.9486    7.2676   -6.1364 C.ar    1  LIG11      -0.0498
     21 C          -6.6990    7.4783   -3.8634 C.ar    1  LIG11      -0.0498
     22 C         -11.6744    5.0346   -3.8826 C.ar    1  LIG11       0.1665
     23 C         -11.6150    2.8047   -3.0054 C.ar    1  LIG11      -0.0159
     24 C         -12.2659    3.9977   -3.2029 C.ar    1  LIG11       0.1662
     25 C          -5.7227    8.6445   -6.1922 C.ar    1  LIG11      -0.0195
     26 C          -6.4638    8.8620   -3.9209 C.ar    1  LIG11      -0.0195
     27 C          -4.6223    3.6411    0.8699 C.3     1  LIG11       0.0148
     28 C          -3.0147    4.3042   -0.9471 C.3     1  LIG11       0.0148
     29 C          -5.9689    9.4494   -5.0837 C.ar    1  LIG11       0.1201
     30 C          -4.9438    4.7397    1.8814 C.3     1  LIG11      -0.0374
     31 C          -2.5847    5.7279   -1.3347 C.3     1  LIG11      -0.0374
     32 C         -13.6974    5.6028   -3.3715 C.3     1  LIG11       0.2332
     33 C          -5.0878    4.1661    3.2917 C.3     1  LIG11      -0.0545
     34 C          -2.7637    6.8027   -0.2644 C.3     1  LIG11      -0.0545
     35 C          -5.3145    5.2635    4.3193 C.3     1  LIG11      -0.0652
     36 C          -1.7967    6.6555    0.8996 C.3     1  LIG11      -0.0652
     37 C          -6.0006   11.6570   -4.1993 C.3     1  LIG11       0.0788
@<TRIPOS>BOND
     1     1    16   ar
     2     2    16   ar
     3     3    22    1
     4     3    32    1
     5     4    18    2
     6     5    24    1
     7     5    32    1
     8     6    29    1
     9     6    37    1
    10     7    11    1
    11     7    12    1
    12     7    15    1
    13     8    18   am
    14     8    27    1
    15     8    28    1
    16     9    10    1
    17     9    11    1
    18     9    16    1
    19    10    12    1
    20    10    13    1
    21    11    14    1
    22    13    17   ar
    23    13    19   ar
    24    14    20   ar
    25    14    21   ar
    26    15    18    1
    27    17    22   ar
    28    19    23   ar
    29    20    25   ar
    30    21    26   ar
    31    22    24   ar
    32    23    24   ar
    33    25    29   ar
    34    26    29   ar
    35    27    30    1
    36    28    31    1
    37    30    33    1
    38    31    34    1
    39    33    35    1
    40    34    36    1
@<TRIPOS>MOLECULE
../ET1/ET1_17-21_50CONFORMERS.pdb
 47 48 0 0 0
SMALL
GASTEIGER

@<TRIPOS>ATOM
      1  N         -4.6060   -0.2010   -1.2330 N.3    17  LEU17      -0.1231
      2  CA        -5.8420   -1.0210   -1.1000 C.3    17  LEU17       0.1693
      3  CB        -5.6090   -2.1190   -0.0730 C.3    17  LEU17       0.0284
      4  CG        -6.8010   -2.9380    0.5390 C.3    17  LEU17       0.0019
      5  CD1       -7.5860   -3.5580   -0.5610 C.3    17  LEU17       0.0001
      6  CD2       -6.1610   -3.9960    1.4440 C.3    17  LEU17       0.0001
      7  C         -7.1100   -0.2470   -0.8830 C.2    17  LEU17       0.2592
      8  O         -8.0200   -0.2640   -1.7200 O.2    17  LEU17      -0.2718
      9  N         -7.1610    0.5120    0.2110 N.am   18  ASP18      -0.1960
     10  CA        -8.2950    1.3600    0.5550 C.3    18  ASP18       0.1840
     11  CB        -8.9800    0.7900    1.8180 C.3    18  ASP18       0.1450
     12  CG       -10.1050    1.6830    2.3700 C.2    18  ASP18       0.3671
     13  OD1       -9.7710    2.5990    3.1630 O.co2  18  ASP18      -0.2456
     14  OD2      -11.2830    1.5600    2.0180 O.co2  18  ASP18      -0.2456
     15  C         -7.9560    2.8500    0.6680 C.2    18  ASP18       0.2622
     16  O         -8.6760    3.7220    0.1000 O.2    18  ASP18      -0.2715
     17  N         -6.8320    3.0920    1.3440 N.am   19  ILE19      -0.1963
     18  CA        -6.3230    4.4110    1.7170 C.3    19  ILE19       0.1727
     19  CB        -5.1350    4.2480    2.7190 C.3    19  ILE19       0.0290
     20  CG2       -4.6780    5.6390    3.1660 C.3    19  ILE19       0.0023
     21  CG1       -5.4830    3.5270    4.0300 C.3    19  ILE19       0.0022
     22  CD1       -6.6190    4.1350    4.9440 C.3    19  ILE19       0.0001
     23  C         -6.0150    5.2070    0.4720 C.2    19  ILE19       0.2616
     24  O         -6.5230    6.3560    0.4050 O.2    19  ILE19      -0.2715
     25  N         -5.1800    4.6650   -0.4490 N.am   20  ILE20      -0.1963
     26  CA        -4.7570    5.3990   -1.6510 C.3    20  ILE20       0.1727
     27  CB        -3.2680    5.9110   -1.6200 C.3    20  ILE20       0.0290
     28  CG2       -3.0520    6.6380   -0.2870 C.3    20  ILE20       0.0023
     29  CG1       -2.2270    4.7520   -1.7430 C.3    20  ILE20       0.0022
     30  CD1       -0.7750    5.0960   -1.7800 C.3    20  ILE20       0.0001
     31  C         -5.0150    4.5430   -2.9200 C.2    20  ILE20       0.2617
     32  O         -4.8870    3.3040   -2.9130 O.2    20  ILE20      -0.2715
     33  N         -5.3830    5.2060   -4.0460 N.am   21  TRP21      -0.1941
     34  CA        -5.6860    4.6510   -5.4490 C.3    21  TRP21       0.1982
     35  CB        -7.2070    4.5150   -5.5870 C.3    21  TRP21       0.0394
     36  CG        -8.0110    3.6630   -4.7300 C.3    21  TRP21       0.0475
     37  CD1       -7.5610    2.5780   -4.0350 C.3    21  TRP21       0.1166
     38  NE1       -8.5580    2.0360   -3.2140 N.pl3  21  TRP21      -0.2376
     39  CE2       -9.6780    2.7840   -3.3310 C.ar   21  TRP21       0.0614
     40  CZ2      -10.9600    2.6510   -2.7480 C.ar   21  TRP21       0.0158
     41  CH2      -12.0440    3.5240   -3.0490 C.ar   21  TRP21       0.0013
     42  CZ3      -11.8460    4.4990   -4.0270 C.ar   21  TRP21      -0.0002
     43  CE3      -10.5290    4.6990   -4.4910 C.ar   21  TRP21      -0.0030
     44  CD2       -9.4110    3.8340   -4.2710 C.ar   21  TRP21      -0.0059
     45  C         -5.2340    5.6010   -6.5370 C.2    21  TRP21       0.3842
     46  O         -5.2330    5.2660   -7.7060 O.co2  21  TRP21      -0.2437
     47  OXT       -5.0030    6.7940   -6.3210 O.co2  21  TRP21      -0.2437
@<TRIPOS>BOND
     1    40    41   ar
     2    40    39   ar
     3    41    42   ar
     4    39    38    1
     5    39    44   ar
     6    42    43   ar
     7    38    37    1
     8    43    44   ar
     9    44    36    1
    10    37    36    1
    11    36    35    1
    12    47    45   ar
    13     5     4    1
    14    35    34    1
    15    45    34    1
    16    45    46   ar
    17    34    33    1
    18     8     7    2
    19     4     6    1
    20     4     3    1
    21     2     3    1
    22     2     1    1
    23     2     7    1
    24     7     9   am
    25    33    31   am
    26    32    31    2
    27    31    26    1
    28     9    10    1
    29    10    11    1
    30    10    15    1
    31    26    27    1
    32    26    25    1
    33    11    12    1
    34    13    12   ar
    35    27    29    1
    36    27    28    1
    37    29    30    1
    38    16    15    2
    39    15    17   am
    40    12    14   ar
    41    25    23   am
    42    17    18    1
    43    23    24    2
    44    23    18    1
    45    18    19    1
    46    19    21    1
    47    19    20    1
    48    21    22    1
