@<TRIPOS>MOLECULE
../ET1/ET1_17-21_50CONFORMERS_NOBACKBONE.pdb
 26 23 0 0 0
SMALL
GASTEIGER

@<TRIPOS>ATOM
      1  CB        -5.6540   -1.9730   -1.0330 C.3    17  LEU17       0.0000
      2  CG        -6.8860   -2.8850   -0.9650 C.3    17  LEU17       0.0000
      3  CD1       -6.9550   -3.8500   -2.1550 C.3    17  LEU17       0.0000
      4  CD2       -6.9280   -3.7170    0.2730 C.3    17  LEU17       0.0000
      5  CB        -9.1320    0.6990    0.2330 C.3    18  ASP18       0.1258
      6  CG       -10.2450    1.5340    0.9100 C.2    18  ASP18       0.3654
      7  OD1      -10.0780    1.9510    2.0560 O.co2  18  ASP18      -0.2456
      8  OD2      -11.2910    1.7150    0.2230 O.co2  18  ASP18      -0.2456
      9  CB        -5.7270    3.7760    3.1080 C.3    19  ILE19       0.0000
     10  CG2       -4.9660    4.9240    3.7730 C.3    19  ILE19       0.0000
     11  CG1       -6.6700    3.0380    4.0790 C.3    19  ILE19       0.0000
     12  CD1       -5.9480    2.4560    5.2780 C.3    19  ILE19       0.0000
     13  CB        -2.5590    5.4580   -0.6350 C.3    20  ILE20       0.0000
     14  CG2       -2.3730    6.4550    0.5350 C.3    20  ILE20       0.0000
     15  CG1       -1.7080    4.1930   -0.7000 C.3    20  ILE20       0.0000
     16  CD1       -0.1540    4.5080   -0.7350 C.3    20  ILE20       0.0000
     17  CB        -6.4690    4.8360   -5.1330 C.3    21  TRP21       0.0066
     18  CG        -6.7110    4.2340   -6.4470 C.3    21  TRP21       0.0452
     19  CD1       -7.2580    4.8790   -7.5230 C.3    21  TRP21       0.1165
     20  NE1       -7.4920    3.9990   -8.5900 N.pl3  21  TRP21      -0.2376
     21  CE2       -7.0850    2.7260   -8.1970 C.ar   21  TRP21       0.0614
     22  CZ2       -7.2620    1.4930   -8.7590 C.ar   21  TRP21       0.0158
     23  CH2       -7.0900    0.3620   -7.9570 C.ar   21  TRP21       0.0013
     24  CZ3       -6.6660    0.3940   -6.6190 C.ar   21  TRP21      -0.0002
     25  CE3       -6.4060    1.6770   -6.0820 C.ar   21  TRP21      -0.0030
     26  CD2       -6.6250    2.8570   -6.8110 C.ar   21  TRP21      -0.0059
@<TRIPOS>BOND
     1    22    23   ar
     2    22    21   ar
     3    23    24   ar
     4    21    20    1
     5    21    26   ar
     6    24    25   ar
     7    20    19    1
     8    25    26   ar
     9    26    18    1
    10    19    18    1
    11    18    17    1
    12     3     2    1
    13     2     4    1
    14     2     1    1
    15     5     6    1
    16     7     6   ar
    17    13    15    1
    18    13    14    1
    19    15    16    1
    20     6     8   ar
    21     9    11    1
    22     9    10    1
    23    11    12    1
@<TRIPOS>MOLECULE
01479498K
 34 38 0 0 0
SMALL
GASTEIGER

@<TRIPOS>ATOM
      1 C          -6.3499    4.2733   -6.8178 C.3     1  LIG11       0.1526
      2 C          -6.9243    4.9477   -5.6095 C.2     1  LIG11       0.0278
      3 C          -6.5098    2.7526   -6.8659 C.ar    1  LIG11       0.0009
      4 O          -4.9458    4.5568   -7.0465 O.3     1  LIG11      -0.4789
      5 C          -6.1825    5.3939   -4.5789 C.2     1  LIG11       0.0016
      6 C          -8.4339    5.1396   -5.7000 C.2     1  LIG11       0.0721
      7 C          -6.3537    1.9544   -5.7167 C.ar    1  LIG11      -0.0091
      8 C          -6.7508    2.1205   -8.1116 C.ar    1  LIG11      -0.0511
      9 C          -4.1900    4.7273   -5.9190 C.ar    1  LIG11       0.1298
     10 C          -4.7329    5.1155   -4.6907 C.ar    1  LIG11       0.0283
     11 C          -6.8111    6.0969   -3.4425 C.ar    1  LIG11      -0.0165
     12 O          -9.1221    4.3434   -5.0044 O.co2   1  LIG11      -0.5448
     13 O          -8.7987    6.0335   -6.5155 O.co2   1  LIG11      -0.5448
     14 C          -6.4480    0.5857   -5.8484 C.ar    1  LIG11       0.1666
     15 C          -6.8457    0.7282   -8.2149 C.ar    1  LIG11      -0.0158
     16 C          -2.8175    4.5195   -6.0589 C.ar    1  LIG11      -0.0158
     17 C          -3.8750    5.2437   -3.5865 C.ar    1  LIG11      -0.0087
     18 C          -6.8511    7.4946   -3.4225 C.ar    1  LIG11      -0.0505
     19 C          -7.3209    5.3833   -2.3548 C.ar    1  LIG11      -0.0505
     20 C          -6.6880   -0.0106   -7.0636 C.ar    1  LIG11       0.1662
     21 O          -6.3099   -0.3213   -4.8431 O.3     1  LIG11      -0.4526
     22 C          -1.9784    4.6471   -4.9528 C.ar    1  LIG11      -0.0164
     23 C          -2.5090    4.9785   -3.7070 C.ar    1  LIG11       0.1217
     24 C          -7.3753    8.1746   -2.3174 C.ar    1  LIG11      -0.0194
     25 C          -7.8374    6.0638   -1.2491 C.ar    1  LIG11      -0.0194
     26 O          -6.7370   -1.3680   -6.9761 O.3     1  LIG11      -0.4526
     27 C          -6.5361   -1.5488   -5.5592 C.3     1  LIG11       0.2332
     28 O          -1.6068    5.0649   -2.6813 O.3     1  LIG11      -0.4893
     29 C          -7.8636    7.4607   -1.2215 C.ar    1  LIG11       0.1201
     30 C          -2.0793    4.6624   -1.3873 C.3     1  LIG11       0.0946
     31 O          -8.3810    8.0031   -0.0752 O.3     1  LIG11      -0.4951
     32 C          -2.2806    5.8997   -0.5189 C.3     1  LIG11      -0.0281
     33 C          -1.0043    3.7625   -0.7820 C.3     1  LIG11      -0.0281
     34 C          -8.5513    9.4139   -0.0644 C.3     1  LIG11       0.0788
@<TRIPOS>BOND
     1     1     4    1
     2     1     2    1
     3     1     3    1
     4     2     5    2
     5     2     6    1
     6     3     8   ar
     7     3     7   ar
     8     4     9    1
     9     5    10    1
    10     5    11    1
    11     6    13   ar
    12     6    12   ar
    13     7    14   ar
    14     8    15   ar
    15     9    16   ar
    16     9    10   ar
    17    10    17   ar
    18    11    18   ar
    19    11    19   ar
    20    14    21    1
    21    14    20   ar
    22    15    20   ar
    23    16    22   ar
    24    17    23   ar
    25    18    24   ar
    26    19    25   ar
    27    20    26    1
    28    21    27    1
    29    22    23   ar
    30    23    28    1
    31    24    29   ar
    32    25    29   ar
    33    26    27    1
    34    28    30    1
    35    29    31    1
    36    30    33    1
    37    30    32    1
    38    31    34    1
@<TRIPOS>MOLECULE
../ET1/ET1_17-21_50CONFORMERS.pdb
 47 48 0 0 0
SMALL
GASTEIGER

@<TRIPOS>ATOM
      1  N         -4.3950   -0.1070   -1.8460 N.3    17  LEU17      -0.1231
      2  CA        -5.6300   -0.8860   -2.0720 C.3    17  LEU17       0.1693
      3  CB        -5.6540   -1.9730   -1.0330 C.3    17  LEU17       0.0284
      4  CG        -6.8860   -2.8850   -0.9650 C.3    17  LEU17       0.0019
      5  CD1       -6.9550   -3.8500   -2.1550 C.3    17  LEU17       0.0001
      6  CD2       -6.9280   -3.7170    0.2730 C.3    17  LEU17       0.0001
      7  C         -6.7880    0.1640   -2.0230 C.2    17  LEU17       0.2592
      8  O         -7.5520    0.3120   -2.9720 O.2    17  LEU17      -0.2718
      9  N         -6.9460    0.8160   -0.8370 N.am   18  ASP18      -0.1960
     10  CA        -8.1680    1.5850   -0.5860 C.3    18  ASP18       0.1840
     11  CB        -9.1320    0.6990    0.2330 C.3    18  ASP18       0.1450
     12  CG       -10.2450    1.5340    0.9100 C.2    18  ASP18       0.3671
     13  OD1      -10.0780    1.9510    2.0560 O.co2  18  ASP18      -0.2456
     14  OD2      -11.2910    1.7150    0.2230 O.co2  18  ASP18      -0.2456
     15  C         -7.8700    2.9380    0.1710 C.2    18  ASP18       0.2622
     16  O         -8.3820    3.9960   -0.1640 O.2    18  ASP18      -0.2715
     17  N         -7.0200    2.9490    1.2190 N.am   19  ILE19      -0.1963
     18  CA        -6.5440    4.2230    1.8820 C.3    19  ILE19       0.1727
     19  CB        -5.7270    3.7760    3.1080 C.3    19  ILE19       0.0290
     20  CG2       -4.9660    4.9240    3.7730 C.3    19  ILE19       0.0023
     21  CG1       -6.6700    3.0380    4.0790 C.3    19  ILE19       0.0022
     22  CD1       -5.9480    2.4560    5.2780 C.3    19  ILE19       0.0001
     23  C         -5.7610    5.1170    0.9190 C.2    19  ILE19       0.2616
     24  O         -6.0590    6.3210    0.7540 O.2    19  ILE19      -0.2715
     25  N         -4.8130    4.4940    0.1790 N.am   20  ILE20      -0.1963
     26  CA        -4.0840    5.2030   -0.9320 C.3    20  ILE20       0.1727
     27  CB        -2.5590    5.4580   -0.6350 C.3    20  ILE20       0.0290
     28  CG2       -2.3730    6.4550    0.5350 C.3    20  ILE20       0.0023
     29  CG1       -1.7080    4.1930   -0.7000 C.3    20  ILE20       0.0022
     30  CD1       -0.1540    4.5080   -0.7350 C.3    20  ILE20       0.0001
     31  C         -4.4220    4.5550   -2.2960 C.2    20  ILE20       0.2617
     32  O         -4.1670    3.3870   -2.4630 O.2    20  ILE20      -0.2715
     33  N         -4.8430    5.3260   -3.2730 N.am   21  TRP21      -0.1941
     34  CA        -4.9870    5.0200   -4.6800 C.3    21  TRP21       0.1982
     35  CB        -6.4690    4.8360   -5.1330 C.3    21  TRP21       0.0394
     36  CG        -6.7110    4.2340   -6.4470 C.3    21  TRP21       0.0475
     37  CD1       -7.2580    4.8790   -7.5230 C.3    21  TRP21       0.1166
     38  NE1       -7.4920    3.9990   -8.5900 N.pl3  21  TRP21      -0.2376
     39  CE2       -7.0850    2.7260   -8.1970 C.ar   21  TRP21       0.0614
     40  CZ2       -7.2620    1.4930   -8.7590 C.ar   21  TRP21       0.0158
     41  CH2       -7.0900    0.3620   -7.9570 C.ar   21  TRP21       0.0013
     42  CZ3       -6.6660    0.3940   -6.6190 C.ar   21  TRP21      -0.0002
     43  CE3       -6.4060    1.6770   -6.0820 C.ar   21  TRP21      -0.0030
     44  CD2       -6.6250    2.8570   -6.8110 C.ar   21  TRP21      -0.0059
     45  C         -4.3080    5.9580   -5.5320 C.2    21  TRP21       0.3842
     46  O         -4.3710    7.1530   -5.3290 O.co2  21  TRP21      -0.2437
     47  OXT       -3.5940    5.5140   -6.4740 O.co2  21  TRP21      -0.2437
@<TRIPOS>BOND
     1    40    41   ar
     2    40    39   ar
     3    41    42   ar
     4    39    38    1
     5    39    44   ar
     6    42    43   ar
     7    38    37    1
     8    43    44   ar
     9    44    36    1
    10    37    36    1
    11    36    35    1
    12    47    45   ar
    13     5     4    1
    14    35    34    1
    15    45    34    1
    16    45    46   ar
    17    34    33    1
    18     8     7    2
    19     4     6    1
    20     4     3    1
    21     2     3    1
    22     2     1    1
    23     2     7    1
    24     7     9   am
    25    33    31   am
    26    32    31    2
    27    31    26    1
    28     9    10    1
    29    10    11    1
    30    10    15    1
    31    26    27    1
    32    26    25    1
    33    11    12    1
    34    13    12   ar
    35    27    29    1
    36    27    28    1
    37    29    30    1
    38    16    15    2
    39    15    17   am
    40    12    14   ar
    41    25    23   am
    42    17    18    1
    43    23    24    2
    44    23    18    1
    45    18    19    1
    46    19    21    1
    47    19    20    1
    48    21    22    1
