@<TRIPOS>MOLECULE
../ET1/ET1_17-21_50CONFORMERS_NOBACKBONE.pdb
 26 23 0 0 0
SMALL
GASTEIGER

@<TRIPOS>ATOM
      1  CB        -5.6090   -2.1190   -0.0730 C.3    17  LEU17       0.0000
      2  CG        -6.8010   -2.9380    0.5390 C.3    17  LEU17       0.0000
      3  CD1       -7.5860   -3.5580   -0.5610 C.3    17  LEU17       0.0000
      4  CD2       -6.1610   -3.9960    1.4440 C.3    17  LEU17       0.0000
      5  CB        -8.9800    0.7900    1.8180 C.3    18  ASP18       0.1258
      6  CG       -10.1050    1.6830    2.3700 C.2    18  ASP18       0.3654
      7  OD1       -9.7710    2.5990    3.1630 O.co2  18  ASP18      -0.2456
      8  OD2      -11.2830    1.5600    2.0180 O.co2  18  ASP18      -0.2456
      9  CB        -5.1350    4.2480    2.7190 C.3    19  ILE19       0.0000
     10  CG2       -4.6780    5.6390    3.1660 C.3    19  ILE19       0.0000
     11  CG1       -5.4830    3.5270    4.0300 C.3    19  ILE19       0.0000
     12  CD1       -6.6190    4.1350    4.9440 C.3    19  ILE19       0.0000
     13  CB        -3.2680    5.9110   -1.6200 C.3    20  ILE20       0.0000
     14  CG2       -3.0520    6.6380   -0.2870 C.3    20  ILE20       0.0000
     15  CG1       -2.2270    4.7520   -1.7430 C.3    20  ILE20       0.0000
     16  CD1       -0.7750    5.0960   -1.7800 C.3    20  ILE20       0.0000
     17  CB        -7.2070    4.5150   -5.5870 C.3    21  TRP21       0.0066
     18  CG        -8.0110    3.6630   -4.7300 C.3    21  TRP21       0.0452
     19  CD1       -7.5610    2.5780   -4.0350 C.3    21  TRP21       0.1165
     20  NE1       -8.5580    2.0360   -3.2140 N.pl3  21  TRP21      -0.2376
     21  CE2       -9.6780    2.7840   -3.3310 C.ar   21  TRP21       0.0614
     22  CZ2      -10.9600    2.6510   -2.7480 C.ar   21  TRP21       0.0158
     23  CH2      -12.0440    3.5240   -3.0490 C.ar   21  TRP21       0.0013
     24  CZ3      -11.8460    4.4990   -4.0270 C.ar   21  TRP21      -0.0002
     25  CE3      -10.5290    4.6990   -4.4910 C.ar   21  TRP21      -0.0030
     26  CD2       -9.4110    3.8340   -4.2710 C.ar   21  TRP21      -0.0059
@<TRIPOS>BOND
     1    22    23   ar
     2    22    21   ar
     3    23    24   ar
     4    21    20    1
     5    21    26   ar
     6    24    25   ar
     7    20    19    1
     8    25    26   ar
     9    26    18    1
    10    19    18    1
    11    18    17    1
    12     3     2    1
    13     2     4    1
    14     2     1    1
    15     5     6    1
    16     7     6   ar
    17    13    15    1
    18    13    14    1
    19    15    16    1
    20     6     8   ar
    21     9    11    1
    22     9    10    1
    23    11    12    1
@<TRIPOS>MOLECULE
*****
 27 29 0 0 0
SMALL
GASTEIGER

@<TRIPOS>ATOM
      1 C          -6.3146    6.9613   -2.0517 C.ar    1  LIG11      -0.0615
      2 C          -6.3128    6.4479   -0.7598 C.ar    1  LIG11      -0.0617
      3 C          -6.8052    5.1694   -0.5338 C.ar    1  LIG11      -0.0615
      4 C          -7.2977    4.4092   -1.5990 C.ar    1  LIG11      -0.0576
      5 C          -7.2995    4.8939   -2.9258 C.ar    1  LIG11      -0.0332
      6 C          -6.8005    6.1950   -3.1195 C.ar    1  LIG11      -0.0576
      7 C          -9.9909    2.9481   -3.0851 C.ar    1  LIG11      -0.0576
      8 C         -11.3768    2.8766   -2.9035 C.ar    1  LIG11      -0.0615
      9 C         -12.2163    3.7600   -3.5688 C.ar    1  LIG11      -0.0617
     10 C         -11.6669    4.7193   -4.4109 C.ar    1  LIG11      -0.0615
     11 C         -10.2788    4.7978   -4.5804 C.ar    1  LIG11      -0.0576
     12 N          -3.7628    3.2044   -3.2110 N.ar    1  LIG11      -0.2002
     13 C          -4.8661    2.4431   -3.3067 C.ar    1  LIG11       0.3190
     14 N          -5.1553    1.3999   -2.5130 N.ar    1  LIG11      -0.2002
     15 C          -4.2830    1.1260   -1.5309 C.ar    1  LIG11       0.0453
     16 C          -3.1362    1.8695   -1.3316 C.ar    1  LIG11      -0.0193
     17 C          -2.9128    2.9096   -2.2129 C.ar    1  LIG11       0.0453
     18 C          -1.7137    3.7953   -2.0759 C.3     1  LIG11      -0.0221
     19 C          -4.6019   -0.0363   -0.6409 C.3     1  LIG11      -0.0221
     20 O          -5.7060    2.7758   -4.3364 O.3     1  LIG11      -0.4519
     21 C          -7.1196    2.5915   -4.0426 C.3     1  LIG11       0.1554
     22 C          -7.8488    3.9966   -4.1041 C.3     1  LIG11       0.0601
     23 C          -7.6769    1.5288   -5.0316 C.2     1  LIG11       0.0833
     24 O          -7.4386    1.7043   -6.2619 O.co2   1  LIG11      -0.5460
     25 O          -8.3082    0.5706   -4.4871 O.co2   1  LIG11      -0.5460
     26 C          -9.4012    3.9048   -3.9329 C.ar    1  LIG11      -0.0332
     27 C          -7.4991    4.6376   -5.4883 C.3     1  LIG11      -0.0477
@<TRIPOS>BOND
     1     1     2   ar
     2     2     3   ar
     3     3     4   ar
     4     4     5   ar
     5     5     6   ar
     6     5    22    1
     7     6     1   ar
     8     7     8   ar
     9     8     9   ar
    10     9    10   ar
    11    10    11   ar
    12    11    26   ar
    13    12    13   ar
    14    13    14   ar
    15    14    15   ar
    16    15    16   ar
    17    15    19    1
    18    16    17   ar
    19    17    12   ar
    20    17    18    1
    21    20    21    1
    22    20    13    1
    23    21    23    1
    24    21    22    1
    25    22    27    1
    26    22    26    1
    27    23    25   ar
    28    23    24   ar
    29    26     7   ar
@<TRIPOS>MOLECULE
../ET1/ET1_17-21_50CONFORMERS.pdb
 47 48 0 0 0
SMALL
GASTEIGER

@<TRIPOS>ATOM
      1  N         -4.6060   -0.2010   -1.2330 N.3    17  LEU17      -0.1231
      2  CA        -5.8420   -1.0210   -1.1000 C.3    17  LEU17       0.1693
      3  CB        -5.6090   -2.1190   -0.0730 C.3    17  LEU17       0.0284
      4  CG        -6.8010   -2.9380    0.5390 C.3    17  LEU17       0.0019
      5  CD1       -7.5860   -3.5580   -0.5610 C.3    17  LEU17       0.0001
      6  CD2       -6.1610   -3.9960    1.4440 C.3    17  LEU17       0.0001
      7  C         -7.1100   -0.2470   -0.8830 C.2    17  LEU17       0.2592
      8  O         -8.0200   -0.2640   -1.7200 O.2    17  LEU17      -0.2718
      9  N         -7.1610    0.5120    0.2110 N.am   18  ASP18      -0.1960
     10  CA        -8.2950    1.3600    0.5550 C.3    18  ASP18       0.1840
     11  CB        -8.9800    0.7900    1.8180 C.3    18  ASP18       0.1450
     12  CG       -10.1050    1.6830    2.3700 C.2    18  ASP18       0.3671
     13  OD1       -9.7710    2.5990    3.1630 O.co2  18  ASP18      -0.2456
     14  OD2      -11.2830    1.5600    2.0180 O.co2  18  ASP18      -0.2456
     15  C         -7.9560    2.8500    0.6680 C.2    18  ASP18       0.2622
     16  O         -8.6760    3.7220    0.1000 O.2    18  ASP18      -0.2715
     17  N         -6.8320    3.0920    1.3440 N.am   19  ILE19      -0.1963
     18  CA        -6.3230    4.4110    1.7170 C.3    19  ILE19       0.1727
     19  CB        -5.1350    4.2480    2.7190 C.3    19  ILE19       0.0290
     20  CG2       -4.6780    5.6390    3.1660 C.3    19  ILE19       0.0023
     21  CG1       -5.4830    3.5270    4.0300 C.3    19  ILE19       0.0022
     22  CD1       -6.6190    4.1350    4.9440 C.3    19  ILE19       0.0001
     23  C         -6.0150    5.2070    0.4720 C.2    19  ILE19       0.2616
     24  O         -6.5230    6.3560    0.4050 O.2    19  ILE19      -0.2715
     25  N         -5.1800    4.6650   -0.4490 N.am   20  ILE20      -0.1963
     26  CA        -4.7570    5.3990   -1.6510 C.3    20  ILE20       0.1727
     27  CB        -3.2680    5.9110   -1.6200 C.3    20  ILE20       0.0290
     28  CG2       -3.0520    6.6380   -0.2870 C.3    20  ILE20       0.0023
     29  CG1       -2.2270    4.7520   -1.7430 C.3    20  ILE20       0.0022
     30  CD1       -0.7750    5.0960   -1.7800 C.3    20  ILE20       0.0001
     31  C         -5.0150    4.5430   -2.9200 C.2    20  ILE20       0.2617
     32  O         -4.8870    3.3040   -2.9130 O.2    20  ILE20      -0.2715
     33  N         -5.3830    5.2060   -4.0460 N.am   21  TRP21      -0.1941
     34  CA        -5.6860    4.6510   -5.4490 C.3    21  TRP21       0.1982
     35  CB        -7.2070    4.5150   -5.5870 C.3    21  TRP21       0.0394
     36  CG        -8.0110    3.6630   -4.7300 C.3    21  TRP21       0.0475
     37  CD1       -7.5610    2.5780   -4.0350 C.3    21  TRP21       0.1166
     38  NE1       -8.5580    2.0360   -3.2140 N.pl3  21  TRP21      -0.2376
     39  CE2       -9.6780    2.7840   -3.3310 C.ar   21  TRP21       0.0614
     40  CZ2      -10.9600    2.6510   -2.7480 C.ar   21  TRP21       0.0158
     41  CH2      -12.0440    3.5240   -3.0490 C.ar   21  TRP21       0.0013
     42  CZ3      -11.8460    4.4990   -4.0270 C.ar   21  TRP21      -0.0002
     43  CE3      -10.5290    4.6990   -4.4910 C.ar   21  TRP21      -0.0030
     44  CD2       -9.4110    3.8340   -4.2710 C.ar   21  TRP21      -0.0059
     45  C         -5.2340    5.6010   -6.5370 C.2    21  TRP21       0.3842
     46  O         -5.2330    5.2660   -7.7060 O.co2  21  TRP21      -0.2437
     47  OXT       -5.0030    6.7940   -6.3210 O.co2  21  TRP21      -0.2437
@<TRIPOS>BOND
     1    40    41   ar
     2    40    39   ar
     3    41    42   ar
     4    39    38    1
     5    39    44   ar
     6    42    43   ar
     7    38    37    1
     8    43    44   ar
     9    44    36    1
    10    37    36    1
    11    36    35    1
    12    47    45   ar
    13     5     4    1
    14    35    34    1
    15    45    34    1
    16    45    46   ar
    17    34    33    1
    18     8     7    2
    19     4     6    1
    20     4     3    1
    21     2     3    1
    22     2     1    1
    23     2     7    1
    24     7     9   am
    25    33    31   am
    26    32    31    2
    27    31    26    1
    28     9    10    1
    29    10    11    1
    30    10    15    1
    31    26    27    1
    32    26    25    1
    33    11    12    1
    34    13    12   ar
    35    27    29    1
    36    27    28    1
    37    29    30    1
    38    16    15    2
    39    15    17   am
    40    12    14   ar
    41    25    23   am
    42    17    18    1
    43    23    24    2
    44    23    18    1
    45    18    19    1
    46    19    21    1
    47    19    20    1
    48    21    22    1
