@<TRIPOS>MOLECULE
../ET1/ET1_17-21_50CONFORMERS_NOBACKBONE.pdb
 26 23 0 0 0
SMALL
GASTEIGER

@<TRIPOS>ATOM
      1  CB        -5.7410   -1.6660   -0.9970 C.3    17  LEU17       0.0000
      2  CG        -7.0800   -2.4770   -1.0040 C.3    17  LEU17       0.0000
      3  CD1       -7.0720   -3.6360   -1.8940 C.3    17  LEU17       0.0000
      4  CD2       -7.2270   -3.0350    0.3960 C.3    17  LEU17       0.0000
      5  CB        -9.0140    2.0580   -0.6430 C.3    18  ASP18       0.1258
      6  CG        -9.9230    3.2540   -0.8450 C.2    18  ASP18       0.3654
      7  OD1      -10.4270    3.4060   -2.0000 O.co2  18  ASP18      -0.2456
      8  OD2      -10.1710    4.0160    0.1240 O.co2  18  ASP18      -0.2456
      9  CB        -5.1660    3.8070    3.1390 C.3    19  ILE19       0.0000
     10  CG2       -4.2870    4.9150    3.8120 C.3    19  ILE19       0.0000
     11  CG1       -6.4310    3.4720    3.9910 C.3    19  ILE19       0.0000
     12  CD1       -6.0780    2.8870    5.3860 C.3    19  ILE19       0.0000
     13  CB        -1.7990    4.4960   -1.1570 C.3    20  ILE20       0.0000
     14  CG2       -0.9550    4.5180   -2.4510 C.3    20  ILE20       0.0000
     15  CG1       -1.1240    5.3340   -0.0410 C.3    20  ILE20       0.0000
     16  CD1        0.3720    5.2830   -0.0060 C.3    20  ILE20       0.0000
     17  CB        -5.9730    3.7280   -4.7280 C.3    21  TRP21       0.0066
     18  CG        -6.5950    3.0710   -5.9210 C.3    21  TRP21       0.0452
     19  CD1       -7.4580    3.7380   -6.7610 C.3    21  TRP21       0.1165
     20  NE1       -7.8220    2.9010   -7.7810 N.pl3  21  TRP21      -0.2376
     21  CE2       -7.4510    1.6160   -7.4090 C.ar   21  TRP21       0.0614
     22  CZ2       -7.8370    0.3550   -7.8470 C.ar   21  TRP21       0.0158
     23  CH2       -7.2100   -0.7860   -7.3500 C.ar   21  TRP21       0.0013
     24  CZ3       -6.2620   -0.6970   -6.3170 C.ar   21  TRP21      -0.0002
     25  CE3       -5.9790    0.5650   -5.8550 C.ar   21  TRP21      -0.0030
     26  CD2       -6.5680    1.7210   -6.3420 C.ar   21  TRP21      -0.0059
@<TRIPOS>BOND
     1    22    23   ar
     2    22    21   ar
     3    23    24   ar
     4    21    20    1
     5    21    26   ar
     6    24    25   ar
     7    20    19    1
     8    25    26   ar
     9    26    18    1
    10    19    18    1
    11    18    17    1
    12     3     2    1
    13     2     4    1
    14     2     1    1
    15     5     6    1
    16     7     6   ar
    17    13    15    1
    18    13    14    1
    19    15    16    1
    20     6     8   ar
    21     9    11    1
    22     9    10    1
    23    11    12    1
@<TRIPOS>MOLECULE
6918493
 28 30 0 0 0
SMALL
GASTEIGER

@<TRIPOS>ATOM
      1 O          -6.9849    3.9365   -6.9915 O.3     1  LIG11      -0.3632
      2 O          -6.4893    2.7519   -3.4272 O.3     1  LIG11      -0.4495
      3 O          -7.1548    5.4305   -3.3776 O.co2   1  LIG11      -0.5459
      4 O          -5.5714    5.8409   -4.9543 O.co2   1  LIG11      -0.5459
      5 N          -4.3768    3.4189   -2.6592 N.ar    1  LIG11      -0.2002
      6 N          -6.0934    2.7083   -1.1650 N.ar    1  LIG11      -0.2002
      7 C          -7.1795    3.1444   -5.7798 C.3     1  LIG11       0.1609
      8 C          -6.2276    3.5685   -4.6096 C.3     1  LIG11       0.1791
      9 C          -8.6670    3.3534   -5.3653 C.ar    1  LIG11      -0.0075
     10 C          -6.9864    1.6670   -6.2731 C.ar    1  LIG11      -0.0075
     11 C          -9.3614    2.3906   -4.6064 C.ar    1  LIG11      -0.0554
     12 C          -6.0468    0.7784   -5.7241 C.ar    1  LIG11      -0.0554
     13 C          -9.3544    4.5324   -5.7071 C.ar    1  LIG11      -0.0554
     14 C          -7.7705    1.1969   -7.3518 C.ar    1  LIG11      -0.0554
     15 C          -6.3528    5.0867   -4.2924 C.2     1  LIG11       0.0856
     16 C          -5.6723    3.9774   -7.5326 C.3     1  LIG11       0.0382
     17 C         -10.6959    2.5835   -4.2384 C.ar    1  LIG11      -0.0614
     18 C          -5.9085   -0.5233   -6.2190 C.ar    1  LIG11      -0.0614
     19 C         -10.6857    4.7294   -5.3314 C.ar    1  LIG11      -0.0614
     20 C          -7.6310   -0.1014   -7.8464 C.ar    1  LIG11      -0.0614
     21 C         -11.3588    3.7516   -4.6042 C.ar    1  LIG11      -0.0617
     22 C          -6.6994   -0.9629   -7.2775 C.ar    1  LIG11      -0.0617
     23 C          -5.6285    3.0164   -2.3861 C.ar    1  LIG11       0.3191
     24 C          -3.5946    3.7038   -1.6051 C.ar    1  LIG11       0.0453
     25 C          -5.2829    2.9946   -0.1309 C.ar    1  LIG11       0.0453
     26 C          -4.0124    3.5110   -0.3032 C.ar    1  LIG11      -0.0193
     27 C          -2.2412    4.2748   -1.8948 C.3     1  LIG11      -0.0221
     28 C          -5.8221    2.7587    1.2462 C.3     1  LIG11      -0.0221
@<TRIPOS>BOND
     1     1     7    1
     2     1    16    1
     3     2     8    1
     4     2    23    1
     5     3    15   ar
     6     4    15   ar
     7     5    23   ar
     8     5    24   ar
     9     6    23   ar
    10     6    25   ar
    11     7     8    1
    12     7     9    1
    13     7    10    1
    14     8    15    1
    15     9    11   ar
    16     9    13   ar
    17    10    12   ar
    18    10    14   ar
    19    11    17   ar
    20    12    18   ar
    21    13    19   ar
    22    14    20   ar
    23    17    21   ar
    24    18    22   ar
    25    19    21   ar
    26    20    22   ar
    27    24    26   ar
    28    24    27    1
    29    25    26   ar
    30    25    28    1
@<TRIPOS>MOLECULE
../ET1/ET1_17-21_50CONFORMERS.pdb
 47 48 0 0 0
SMALL
GASTEIGER

@<TRIPOS>ATOM
      1  N         -4.2790   -0.1190   -2.0470 N.3    17  LEU17      -0.1231
      2  CA        -5.5940   -0.7250   -2.2120 C.3    17  LEU17       0.1693
      3  CB        -5.7410   -1.6660   -0.9970 C.3    17  LEU17       0.0284
      4  CG        -7.0800   -2.4770   -1.0040 C.3    17  LEU17       0.0019
      5  CD1       -7.0720   -3.6360   -1.8940 C.3    17  LEU17       0.0001
      6  CD2       -7.2270   -3.0350    0.3960 C.3    17  LEU17       0.0001
      7  C         -6.7480    0.3610   -2.1680 C.2    17  LEU17       0.2592
      8  O         -7.6420    0.4260   -3.0190 O.2    17  LEU17      -0.2718
      9  N         -6.6830    1.1920   -1.0710 N.am   18  ASP18      -0.1960
     10  CA        -7.5670    2.3620   -1.0900 C.3    18  ASP18       0.1840
     11  CB        -9.0140    2.0580   -0.6430 C.3    18  ASP18       0.1450
     12  CG        -9.9230    3.2540   -0.8450 C.2    18  ASP18       0.3671
     13  OD1      -10.4270    3.4060   -2.0000 O.co2  18  ASP18      -0.2456
     14  OD2      -10.1710    4.0160    0.1240 O.co2  18  ASP18      -0.2456
     15  C         -6.9940    3.5030   -0.2290 C.2    18  ASP18       0.2622
     16  O         -7.0620    4.6530   -0.6570 O.2    18  ASP18      -0.2715
     17  N         -6.3850    3.3110    0.8920 N.am   19  ILE19      -0.1963
     18  CA        -5.6590    4.3450    1.7380 C.3    19  ILE19       0.1727
     19  CB        -5.1660    3.8070    3.1390 C.3    19  ILE19       0.0290
     20  CG2       -4.2870    4.9150    3.8120 C.3    19  ILE19       0.0023
     21  CG1       -6.4310    3.4720    3.9910 C.3    19  ILE19       0.0022
     22  CD1       -6.0780    2.8870    5.3860 C.3    19  ILE19       0.0001
     23  C         -4.5450    4.9360    0.8000 C.2    19  ILE19       0.2616
     24  O         -4.3460    6.1370    0.7840 O.2    19  ILE19      -0.2715
     25  N         -3.9360    4.1940   -0.1550 N.am   20  ILE20      -0.1963
     26  CA        -3.2610    4.7730   -1.3150 C.3    20  ILE20       0.1727
     27  CB        -1.7990    4.4960   -1.1570 C.3    20  ILE20       0.0290
     28  CG2       -0.9550    4.5180   -2.4510 C.3    20  ILE20       0.0023
     29  CG1       -1.1240    5.3340   -0.0410 C.3    20  ILE20       0.0022
     30  CD1        0.3720    5.2830   -0.0060 C.3    20  ILE20       0.0001
     31  C         -3.8840    4.0520   -2.5330 C.2    20  ILE20       0.2617
     32  O         -4.2680    2.8800   -2.4260 O.2    20  ILE20      -0.2715
     33  N         -4.0660    4.7980   -3.6400 N.am   21  TRP21      -0.1941
     34  CA        -4.5180    4.2280   -4.9240 C.3    21  TRP21       0.1982
     35  CB        -5.9730    3.7280   -4.7280 C.3    21  TRP21       0.0394
     36  CG        -6.5950    3.0710   -5.9210 C.3    21  TRP21       0.0475
     37  CD1       -7.4580    3.7380   -6.7610 C.3    21  TRP21       0.1166
     38  NE1       -7.8220    2.9010   -7.7810 N.pl3  21  TRP21      -0.2376
     39  CE2       -7.4510    1.6160   -7.4090 C.ar   21  TRP21       0.0614
     40  CZ2       -7.8370    0.3550   -7.8470 C.ar   21  TRP21       0.0158
     41  CH2       -7.2100   -0.7860   -7.3500 C.ar   21  TRP21       0.0013
     42  CZ3       -6.2620   -0.6970   -6.3170 C.ar   21  TRP21      -0.0002
     43  CE3       -5.9790    0.5650   -5.8550 C.ar   21  TRP21      -0.0030
     44  CD2       -6.5680    1.7210   -6.3420 C.ar   21  TRP21      -0.0059
     45  C         -4.3900    5.2420   -6.0420 C.2    21  TRP21       0.3842
     46  O         -3.6970    4.8840   -7.0030 O.co2  21  TRP21      -0.2437
     47  OXT       -4.9340    6.3240   -5.8780 O.co2  21  TRP21      -0.2437
@<TRIPOS>BOND
     1    40    41   ar
     2    40    39   ar
     3    41    42   ar
     4    39    38    1
     5    39    44   ar
     6    42    43   ar
     7    38    37    1
     8    43    44   ar
     9    44    36    1
    10    37    36    1
    11    36    35    1
    12    47    45   ar
    13     5     4    1
    14    35    34    1
    15    45    34    1
    16    45    46   ar
    17    34    33    1
    18     8     7    2
    19     4     6    1
    20     4     3    1
    21     2     3    1
    22     2     1    1
    23     2     7    1
    24     7     9   am
    25    33    31   am
    26    32    31    2
    27    31    26    1
    28     9    10    1
    29    10    11    1
    30    10    15    1
    31    26    27    1
    32    26    25    1
    33    11    12    1
    34    13    12   ar
    35    27    29    1
    36    27    28    1
    37    29    30    1
    38    16    15    2
    39    15    17   am
    40    12    14   ar
    41    25    23   am
    42    17    18    1
    43    23    24    2
    44    23    18    1
    45    18    19    1
    46    19    21    1
    47    19    20    1
    48    21    22    1
