@<TRIPOS>MOLECULE
../ET1/ET1_17-21_50CONFORMERS_NOBACKBONE.pdb
 26 23 0 0 0
SMALL
GASTEIGER

@<TRIPOS>ATOM
      1  CB        -5.8230   -1.3000   -0.0200 C.3    17  LEU17       0.0000
      2  CG        -7.1210   -2.0520    0.2730 C.3    17  LEU17       0.0000
      3  CD1       -7.3450   -3.3240   -0.5260 C.3    17  LEU17       0.0000
      4  CD2       -7.1050   -2.4320    1.7560 C.3    17  LEU17       0.0000
      5  CB        -9.8100    1.4940   -0.6650 C.3    18  ASP18       0.1258
      6  CG       -10.9800    2.4410   -1.1080 C.2    18  ASP18       0.3654
      7  OD1      -11.1620    2.6260   -2.3450 O.co2  18  ASP18      -0.2456
      8  OD2      -11.6890    3.0500   -0.2610 O.co2  18  ASP18      -0.2456
      9  CB        -6.3810    4.5930    2.3780 C.3    19  ILE19       0.0000
     10  CG2       -5.1090    3.7040    2.3320 C.3    19  ILE19       0.0000
     11  CG1       -5.9960    5.9430    3.0860 C.3    19  ILE19       0.0000
     12  CD1       -5.9900    5.6400    4.6020 C.3    19  ILE19       0.0000
     13  CB        -3.0010    5.5600   -0.9960 C.3    20  ILE20       0.0000
     14  CG2       -3.0220    6.7560   -0.0120 C.3    20  ILE20       0.0000
     15  CG1       -2.3580    4.3220   -0.4780 C.3    20  ILE20       0.0000
     16  CD1       -0.8540    4.5810   -0.0790 C.3    20  ILE20       0.0000
     17  CB        -6.4600    3.3010   -5.4360 C.3    21  TRP21       0.0066
     18  CG        -6.1540    2.0960   -6.3470 C.3    21  TRP21       0.0452
     19  CD1       -6.5110    2.0410   -7.7090 C.3    21  TRP21       0.1165
     20  NE1       -6.2560    0.7800   -8.2410 N.pl3  21  TRP21      -0.2376
     21  CE2       -5.8060   -0.0630   -7.2480 C.ar   21  TRP21       0.0614
     22  CZ2       -5.4890   -1.4340   -7.1970 C.ar   21  TRP21       0.0158
     23  CH2       -4.8030   -2.0280   -6.1140 C.ar   21  TRP21       0.0013
     24  CZ3       -4.5240   -1.2220   -5.0000 C.ar   21  TRP21      -0.0002
     25  CE3       -4.9630    0.1690   -4.9520 C.ar   21  TRP21      -0.0030
     26  CD2       -5.6260    0.7530   -6.0730 C.ar   21  TRP21      -0.0059
@<TRIPOS>BOND
     1    22    23   ar
     2    22    21   ar
     3    23    24   ar
     4    21    20    1
     5    21    26   ar
     6    24    25   ar
     7    20    19    1
     8    25    26   ar
     9    26    18    1
    10    19    18    1
    11    18    17    1
    12     3     2    1
    13     2     4    1
    14     2     1    1
    15     5     6    1
    16     7     6   ar
    17    13    15    1
    18    13    14    1
    19    15    16    1
    20     6     8   ar
    21     9    11    1
    22     9    10    1
    23    11    12    1
@<TRIPOS>MOLECULE
16219006
 44 47 0 0 0
SMALL
GASTEIGER

@<TRIPOS>ATOM
      1 O          -6.8072    3.0598    3.7923 O.2     1  PRO11      -0.2738
      2 O          -3.4430    3.0915    1.2808 O.2     5  ASP55      -0.2735
      3 O          -4.0046   -0.3798    1.7365 O.2     2  VAL22      -0.2738
      4 O          -6.1529    4.8699   -2.1140 O.2     4  TRP44      -0.2738
      5 O          -7.5374    1.6889   -0.3185 O.2     3  LEU33      -0.2738
      6 OD1        -2.0284    7.1710   -0.7381 O.co2   5  ASP55      -0.5497
      7 OD2        -1.5979    5.9175    1.1180 O.co2   5  ASP55      -0.5497
      8 N          -4.8852    4.7862    1.7346 N.am    1  PRO11      -0.2884
      9 N          -4.7793    2.0800    3.3830 N.am    2  VAL22      -0.3022
     10 N          -4.3738    3.6196   -1.3621 N.am    5  ASP55      -0.3021
     11 N          -6.2391    0.0182    1.4264 N.am    3  LEU33      -0.3025
     12 N          -5.8471    1.3135   -1.8163 N.am    4  TRP44      -0.3022
     13 NE1        -7.4428   -0.2220   -5.8337 N.ar    4  TRP44      -0.3604
     14 CA         -4.9222    4.5109    3.1706 C.3     1  PRO11       0.1023
     15 CB         -5.6634    5.7107    3.7704 C.3     1  PRO11      -0.0243
     16 CG         -6.5092    6.2292    2.6141 C.3     1  PRO11      -0.0350
     17 CD         -5.6082    6.0037    1.4127 C.3     1  PRO11       0.0156
     18 C          -5.6220    3.1673    3.4850 C.2     1  PRO11       0.2342
     19 C          -3.9712    4.1539    0.9197 C.2     5  ASP55       0.2369
     20 CA         -5.2264    0.7026    3.5526 C.3     2  VAL22       0.1017
     21 CA         -3.7811    4.6767   -0.5262 C.3     5  ASP55       0.1047
     22 CB         -4.3900   -0.0184    4.6328 C.3     2  VAL22      -0.0197
     23 CA         -6.2081   -0.3077    0.0084 C.3     3  LEU33       0.0996
     24 C          -5.0751    0.0417    2.1687 C.2     2  VAL22       0.2342
     25 CB         -2.3064    4.8393   -0.8529 C.3     5  ASP55       0.0138
     26 CA         -6.1704    2.5047   -2.6122 C.3     4  TRP44       0.1034
     27 CB         -7.2192   -1.4003   -0.3707 C.3     3  LEU33      -0.0236
     28 CG         -6.8014   -2.8355    0.0178 C.3     3  LEU33      -0.0446
     29 C          -5.6112    3.7779   -1.9541 C.2     4  TRP44       0.2343
     30 CB         -5.6090    2.4232   -4.0387 C.3     4  TRP44       0.0013
     31 C          -6.5972    0.9962   -0.7084 C.2     3  LEU33       0.2340
     32 CG1        -4.7591   -1.5039    4.7348 C.3     2  VAL22      -0.0605
     33 CG2        -4.5931    0.6368    6.0054 C.3     2  VAL22      -0.0605
     34 CG         -6.1008    1.2244   -4.7960 C.ar    4  TRP44      -0.0201
     35 CG         -1.9313    6.0962   -0.0850 C.2     5  ASP55       0.0440
     36 CD1        -6.8564   -3.0910    1.5246 C.3     3  LEU33      -0.0626
     37 CD2        -7.7096   -3.8465   -0.6913 C.3     3  LEU33      -0.0626
     38 CD2        -5.3185    0.1137   -5.2495 C.ar    4  TRP44       0.0029
     39 CD1        -7.4039    0.9817   -5.1857 C.ar    4  TRP44       0.0060
     40 CE2        -6.1850   -0.7743   -5.8880 C.ar    4  TRP44       0.0467
     41 CE3        -3.9503   -0.2207   -5.1754 C.ar    4  TRP44      -0.0523
     42 CZ2        -5.7538   -1.9804   -6.4536 C.ar    4  TRP44      -0.0378
     43 CZ3        -3.5014   -1.4205   -5.7386 C.ar    4  TRP44      -0.0611
     44 CH2        -4.3925   -2.2866   -6.3670 C.ar    4  TRP44      -0.0598
@<TRIPOS>BOND
     1     1    18    2
     2     2    19    2
     3     3    24    2
     4     4    29    2
     5     5    31    2
     6     6    35   ar
     7     7    35   ar
     8     8    14    1
     9     8    17    1
    10     8    19   am
    11     9    18   am
    12     9    20    1
    13    10    21    1
    14    10    29   am
    15    11    23    1
    16    11    24   am
    17    12    26    1
    18    12    31   am
    19    13    39   ar
    20    13    40   ar
    21    14    15    1
    22    14    18    1
    23    15    16    1
    24    16    17    1
    25    19    21    1
    26    20    22    1
    27    20    24    1
    28    21    25    1
    29    22    32    1
    30    22    33    1
    31    23    27    1
    32    23    31    1
    33    25    35    1
    34    26    29    1
    35    26    30    1
    36    27    28    1
    37    28    36    1
    38    28    37    1
    39    30    34    1
    40    34    38   ar
    41    34    39   ar
    42    38    40   ar
    43    38    41   ar
    44    40    42   ar
    45    41    43   ar
    46    42    44   ar
    47    43    44   ar
@<TRIPOS>MOLECULE
../ET1/ET1_17-21_50CONFORMERS.pdb
 47 48 0 0 0
SMALL
GASTEIGER

@<TRIPOS>ATOM
      1  N         -4.4720    0.1410   -1.4080 N.3    17  LEU17      -0.1231
      2  CA        -5.6790   -0.6380   -1.3690 C.3    17  LEU17       0.1693
      3  CB        -5.8230   -1.3000   -0.0200 C.3    17  LEU17       0.0284
      4  CG        -7.1210   -2.0520    0.2730 C.3    17  LEU17       0.0019
      5  CD1       -7.3450   -3.3240   -0.5260 C.3    17  LEU17       0.0001
      6  CD2       -7.1050   -2.4320    1.7560 C.3    17  LEU17       0.0001
      7  C         -6.8980    0.2070   -1.7660 C.2    17  LEU17       0.2592
      8  O         -7.5610   -0.0070   -2.7650 O.2    17  LEU17      -0.2718
      9  N         -7.3770    1.1650   -0.9800 N.am   18  ASP18      -0.1960
     10  CA        -8.4900    2.0500   -1.2600 C.3    18  ASP18       0.1840
     11  CB        -9.8100    1.4940   -0.6650 C.3    18  ASP18       0.1450
     12  CG       -10.9800    2.4410   -1.1080 C.2    18  ASP18       0.3671
     13  OD1      -11.1620    2.6260   -2.3450 O.co2  18  ASP18      -0.2456
     14  OD2      -11.6890    3.0500   -0.2610 O.co2  18  ASP18      -0.2456
     15  C         -8.1570    3.4170   -0.7330 C.2    18  ASP18       0.2622
     16  O         -8.3600    4.4270   -1.4500 O.2    18  ASP18      -0.2715
     17  N         -7.5900    3.5370    0.4990 N.am   19  ILE19      -0.1963
     18  CA        -7.2060    4.8060    1.0980 C.3    19  ILE19       0.1727
     19  CB        -6.3810    4.5930    2.3780 C.3    19  ILE19       0.0290
     20  CG2       -5.1090    3.7040    2.3320 C.3    19  ILE19       0.0023
     21  CG1       -5.9960    5.9430    3.0860 C.3    19  ILE19       0.0022
     22  CD1       -5.9900    5.6400    4.6020 C.3    19  ILE19       0.0001
     23  C         -6.3560    5.5680    0.0420 C.2    19  ILE19       0.2616
     24  O         -6.4380    6.7870   -0.0320 O.2    19  ILE19      -0.2715
     25  N         -5.4290    4.8700   -0.5810 N.am   20  ILE20      -0.1963
     26  CA        -4.4440    5.3370   -1.5350 C.3    20  ILE20       0.1727
     27  CB        -3.0010    5.5600   -0.9960 C.3    20  ILE20       0.0290
     28  CG2       -3.0220    6.7560   -0.0120 C.3    20  ILE20       0.0023
     29  CG1       -2.3580    4.3220   -0.4780 C.3    20  ILE20       0.0022
     30  CD1       -0.8540    4.5810   -0.0790 C.3    20  ILE20       0.0001
     31  C         -4.5130    4.3060   -2.7300 C.2    20  ILE20       0.2617
     32  O         -4.1930    3.1280   -2.6370 O.2    20  ILE20      -0.2715
     33  N         -4.9570    4.7520   -3.9100 N.am   21  TRP21      -0.1941
     34  CA        -5.0770    3.9470   -5.1760 C.3    21  TRP21       0.1982
     35  CB        -6.4600    3.3010   -5.4360 C.3    21  TRP21       0.0394
     36  CG        -6.1540    2.0960   -6.3470 C.3    21  TRP21       0.0475
     37  CD1       -6.5110    2.0410   -7.7090 C.3    21  TRP21       0.1166
     38  NE1       -6.2560    0.7800   -8.2410 N.pl3  21  TRP21      -0.2376
     39  CE2       -5.8060   -0.0630   -7.2480 C.ar   21  TRP21       0.0614
     40  CZ2       -5.4890   -1.4340   -7.1970 C.ar   21  TRP21       0.0158
     41  CH2       -4.8030   -2.0280   -6.1140 C.ar   21  TRP21       0.0013
     42  CZ3       -4.5240   -1.2220   -5.0000 C.ar   21  TRP21      -0.0002
     43  CE3       -4.9630    0.1690   -4.9520 C.ar   21  TRP21      -0.0030
     44  CD2       -5.6260    0.7530   -6.0730 C.ar   21  TRP21      -0.0059
     45  C         -4.6800    4.8700   -6.3890 C.2    21  TRP21       0.3842
     46  O         -5.3780    5.8440   -6.6380 O.co2  21  TRP21      -0.2437
     47  OXT       -3.6890    4.5570   -7.0760 O.co2  21  TRP21      -0.2437
@<TRIPOS>BOND
     1    40    41   ar
     2    40    39   ar
     3    41    42   ar
     4    39    38    1
     5    39    44   ar
     6    42    43   ar
     7    38    37    1
     8    43    44   ar
     9    44    36    1
    10    37    36    1
    11    36    35    1
    12    47    45   ar
    13     5     4    1
    14    35    34    1
    15    45    34    1
    16    45    46   ar
    17    34    33    1
    18     8     7    2
    19     4     6    1
    20     4     3    1
    21     2     3    1
    22     2     1    1
    23     2     7    1
    24     7     9   am
    25    33    31   am
    26    32    31    2
    27    31    26    1
    28     9    10    1
    29    10    11    1
    30    10    15    1
    31    26    27    1
    32    26    25    1
    33    11    12    1
    34    13    12   ar
    35    27    29    1
    36    27    28    1
    37    29    30    1
    38    16    15    2
    39    15    17   am
    40    12    14   ar
    41    25    23   am
    42    17    18    1
    43    23    24    2
    44    23    18    1
    45    18    19    1
    46    19    21    1
    47    19    20    1
    48    21    22    1
