@<TRIPOS>MOLECULE
../ET1/ET1_17-21_50CONFORMERS_NOBACKBONE.pdb
 26 23 0 0 0
SMALL
GASTEIGER

@<TRIPOS>ATOM
      1  CB        -6.0320   -1.7260   -1.1030 C.3    17  LEU17       0.0000
      2  CG        -7.0780   -2.6010   -1.6650 C.3    17  LEU17       0.0000
      3  CD1       -6.7850   -3.1800   -3.0690 C.3    17  LEU17       0.0000
      4  CD2       -7.3480   -3.7290   -0.7320 C.3    17  LEU17       0.0000
      5  CB        -8.8130    1.1140    1.2660 C.3    18  ASP18       0.1258
      6  CG       -10.2300    1.4980    1.6400 C.2    18  ASP18       0.3654
      7  OD1      -10.4900    2.2680    2.5970 O.co2  18  ASP18      -0.2456
      8  OD2      -11.1770    1.1770    0.8180 O.co2  18  ASP18      -0.2456
      9  CB        -4.8870    4.3750    2.7780 C.3    19  ILE19       0.0000
     10  CG2       -4.4050    5.6090    3.4770 C.3    19  ILE19       0.0000
     11  CG1       -5.2510    3.2630    3.8230 C.3    19  ILE19       0.0000
     12  CD1       -6.5040    3.5010    4.6160 C.3    19  ILE19       0.0000
     13  CB        -3.0410    5.9480   -1.7710 C.3    20  ILE20       0.0000
     14  CG2       -2.9160    7.1040   -0.8250 C.3    20  ILE20       0.0000
     15  CG1       -1.9950    4.8170   -1.4230 C.3    20  ILE20       0.0000
     16  CD1       -0.5500    5.1390   -1.9550 C.3    20  ILE20       0.0000
     17  CB        -7.9200    4.1250   -3.7570 C.3    21  TRP21       0.0066
     18  CG        -8.4250    5.4530   -3.3620 C.3    21  TRP21       0.0452
     19  CD1       -8.1190    6.0680   -2.2450 C.3    21  TRP21       0.1165
     20  NE1       -8.7560    7.2690   -2.1720 N.pl3  21  TRP21      -0.2376
     21  CE2       -9.5810    7.4730   -3.2750 C.ar   21  TRP21       0.0614
     22  CZ2      -10.4220    8.4750   -3.7020 C.ar   21  TRP21       0.0158
     23  CH2      -11.1680    8.3670   -4.9280 C.ar   21  TRP21       0.0013
     24  CZ3      -11.0860    7.1640   -5.6280 C.ar   21  TRP21      -0.0002
     25  CE3      -10.1730    6.1170   -5.2330 C.ar   21  TRP21      -0.0030
     26  CD2       -9.4090    6.2620   -4.0570 C.ar   21  TRP21      -0.0059
@<TRIPOS>BOND
     1    22    23   ar
     2    22    21   ar
     3    23    24   ar
     4    21    20    1
     5    21    26   ar
     6    24    25   ar
     7    20    19    1
     8    25    26   ar
     9    26    18    1
    10    19    18    1
    11    18    17    1
    12     3     2    1
    13     2     4    1
    14     2     1    1
    15     5     6    1
    16     7     6   ar
    17    13    15    1
    18    13    14    1
    19    15    16    1
    20     6     8   ar
    21     9    11    1
    22     9    10    1
    23    11    12    1
@<TRIPOS>MOLECULE
2-[[2-[2-butyl-4-[(Z)-2-carboxy-3-(6-methoxy-1,3-benzodioxol-5-yl)prop-1-enyl]pyrazol-3-yl]-5-methoxyphenoxy]methyl]benzoic acid
 45 49 0 0 0
SMALL
GASTEIGER

@<TRIPOS>ATOM
      1 O          -6.5947    0.7018    0.9112 O.3     1  LIG11      -0.4866
      2 O         -10.2778    9.9811   -4.2865 O.3     1  LIG11      -0.4526
      3 O         -11.7989    9.2674   -6.0181 O.3     1  LIG11      -0.4525
      4 O         -10.9198    4.6225   -5.1887 O.3     1  LIG11      -0.4947
      5 O          -3.3835    4.2570    1.6747 O.3     1  LIG11      -0.4950
      6 O          -6.5685    5.2487   -5.8007 O.co2   1  LIG11      -0.5449
      7 O          -6.5287    6.7399   -4.0693 O.co2   1  LIG11      -0.5449
      8 O          -9.6533    0.0451    3.0507 O.co2   1  LIG11      -0.5446
      9 O         -10.3464   -2.0396    3.5189 O.co2   1  LIG11      -0.5446
     10 N          -7.9339    0.6136   -1.7171 N.ar    1  LIG11      -0.2630
     11 N          -9.0857    0.5964   -2.4410 N.ar    1  LIG11      -0.1785
     12 C          -7.2630    1.8387   -1.7662 C.ar    1  LIG11       0.0795
     13 C          -7.4097   -0.6814   -1.2916 C.3     1  LIG11       0.0422
     14 C          -7.5564   -1.7718   -2.3654 C.3     1  LIG11      -0.0336
     15 C          -7.8273    2.4186   -2.9158 C.ar    1  LIG11       0.0207
     16 C          -6.1911    2.3271   -0.8244 C.ar    1  LIG11       0.0425
     17 C          -6.6864   -3.0034   -2.1138 C.3     1  LIG11      -0.0542
     18 C          -8.9647    1.6593   -3.2280 C.ar    1  LIG11       0.0571
     19 C          -7.3306    3.4904   -3.7135 C.2     1  LIG11      -0.0459
     20 C          -8.9498    5.3585   -3.0943 C.3     1  LIG11       0.0029
     21 C          -5.9540    1.8396    0.4932 C.ar    1  LIG11       0.1336
     22 C          -7.7862    4.7547   -3.8183 C.2     1  LIG11      -0.0200
     23 C          -9.7905    6.3410   -3.8932 C.ar    1  LIG11       0.0023
     24 C          -5.4146    3.4401   -1.2186 C.ar    1  LIG11      -0.0456
     25 C          -7.0197   -3.7257   -0.8207 C.3     1  LIG11      -0.0652
     26 C          -4.9900    2.4591    1.3192 C.ar    1  LIG11       0.0224
     27 C         -10.7122    5.9439   -4.8872 C.ar    1  LIG11       0.1273
     28 C          -9.6144    7.7204   -3.6517 C.ar    1  LIG11      -0.0092
     29 C          -4.4901    4.0665   -0.3783 C.ar    1  LIG11      -0.0191
     30 C         -10.3349    8.6255   -4.4011 C.ar    1  LIG11       0.1667
     31 C          -4.2998    3.5948    0.9040 C.ar    1  LIG11       0.1236
     32 C         -11.2050    8.2189   -5.3834 C.ar    1  LIG11       0.1697
     33 C         -11.4115    6.8852   -5.6569 C.ar    1  LIG11       0.0258
     34 C          -6.8955    5.6841   -4.6562 C.2     1  LIG11       0.0680
     35 C          -6.9156    0.5162    2.3005 C.3     1  LIG11       0.1153
     36 C         -11.1411   10.3743   -5.3678 C.3     1  LIG11       0.2332
     37 C          -6.9076   -0.9757    2.6062 C.ar    1  LIG11      -0.0016
     38 C          -8.0379   -1.7421    2.9850 C.ar    1  LIG11       0.0037
     39 C          -5.6462   -1.6216    2.5187 C.ar    1  LIG11      -0.0547
     40 C         -11.9241    4.0633   -4.3448 C.3     1  LIG11       0.0788
     41 C          -7.8451   -3.1267    3.2284 C.ar    1  LIG11      -0.0525
     42 C          -5.4912   -2.9816    2.7876 C.ar    1  LIG11      -0.0614
     43 C          -3.8305    4.4777    3.0109 C.3     1  LIG11       0.0788
     44 C          -6.5955   -3.7390    3.1366 C.ar    1  LIG11      -0.0611
     45 C          -9.4538   -1.1998    3.1821 C.2     1  LIG11       0.0720
@<TRIPOS>BOND
     1     1    35    1
     2     1    21    1
     3     2    36    1
     4     2    30    1
     5     3    32    1
     6     3    36    1
     7     4    27    1
     8     4    40    1
     9     5    31    1
    10     5    43    1
    11     6    34   ar
    12     7    34   ar
    13     8    45   ar
    14     9    45   ar
    15    10    11   ar
    16    10    12   ar
    17    10    13    1
    18    11    18   ar
    19    12    15   ar
    20    13    14    1
    21    14    17    1
    22    15    18   ar
    23    15    19    1
    24    16    24   ar
    25    16    21   ar
    26    16    12    1
    27    17    25    1
    28    19    22    2
    29    20    22    1
    30    20    23    1
    31    21    26   ar
    32    22    34    1
    33    23    28   ar
    34    23    27   ar
    35    24    29   ar
    36    26    31   ar
    37    27    33   ar
    38    28    30   ar
    39    29    31   ar
    40    30    32   ar
    41    32    33   ar
    42    35    37    1
    43    37    39   ar
    44    37    38   ar
    45    38    41   ar
    46    38    45    1
    47    39    42   ar
    48    41    44   ar
    49    42    44   ar
@<TRIPOS>MOLECULE
../ET1/ET1_17-21_50CONFORMERS.pdb
 47 48 0 0 0
SMALL
GASTEIGER

@<TRIPOS>ATOM
      1  N         -4.5390    0.2280   -1.6100 N.3    17  LEU17      -0.1231
      2  CA        -5.8680   -0.3980   -1.8940 C.3    17  LEU17       0.1693
      3  CB        -6.0320   -1.7260   -1.1030 C.3    17  LEU17       0.0284
      4  CG        -7.0780   -2.6010   -1.6650 C.3    17  LEU17       0.0019
      5  CD1       -6.7850   -3.1800   -3.0690 C.3    17  LEU17       0.0001
      6  CD2       -7.3480   -3.7290   -0.7320 C.3    17  LEU17       0.0001
      7  C         -7.1270    0.4540   -1.5890 C.2    17  LEU17       0.2592
      8  O         -8.1120    0.2970   -2.2000 O.2    17  LEU17      -0.2718
      9  N         -7.0630    1.2010   -0.5010 N.am   18  ASP18      -0.1960
     10  CA        -8.2440    1.9290    0.0850 C.3    18  ASP18       0.1840
     11  CB        -8.8130    1.1140    1.2660 C.3    18  ASP18       0.1450
     12  CG       -10.2300    1.4980    1.6400 C.2    18  ASP18       0.3671
     13  OD1      -10.4900    2.2680    2.5970 O.co2  18  ASP18      -0.2456
     14  OD2      -11.1770    1.1770    0.8180 O.co2  18  ASP18      -0.2456
     15  C         -7.8330    3.3550    0.6240 C.2    18  ASP18       0.2622
     16  O         -8.5870    4.3920    0.4550 O.2    18  ASP18      -0.2715
     17  N         -6.6540    3.4520    1.3220 N.am   19  ILE19      -0.1963
     18  CA        -6.0210    4.6750    1.7890 C.3    19  ILE19       0.1727
     19  CB        -4.8870    4.3750    2.7780 C.3    19  ILE19       0.0290
     20  CG2       -4.4050    5.6090    3.4770 C.3    19  ILE19       0.0023
     21  CG1       -5.2510    3.2630    3.8230 C.3    19  ILE19       0.0022
     22  CD1       -6.5040    3.5010    4.6160 C.3    19  ILE19       0.0001
     23  C         -5.5350    5.5070    0.5840 C.2    19  ILE19       0.2616
     24  O         -5.9050    6.6660    0.4660 O.2    19  ILE19      -0.2715
     25  N         -4.7320    4.9080   -0.3300 N.am   20  ILE20      -0.1963
     26  CA        -4.4970    5.4200   -1.7260 C.3    20  ILE20       0.1727
     27  CB        -3.0410    5.9480   -1.7710 C.3    20  ILE20       0.0290
     28  CG2       -2.9160    7.1040   -0.8250 C.3    20  ILE20       0.0023
     29  CG1       -1.9950    4.8170   -1.4230 C.3    20  ILE20       0.0022
     30  CD1       -0.5500    5.1390   -1.9550 C.3    20  ILE20       0.0001
     31  C         -4.9410    4.3990   -2.7850 C.2    20  ILE20       0.2617
     32  O         -4.8590    3.1790   -2.5280 O.2    20  ILE20      -0.2715
     33  N         -5.5740    4.8700   -3.8240 N.am   21  TRP21      -0.1941
     34  CA        -6.5840    4.1470   -4.6190 C.3    21  TRP21       0.1982
     35  CB        -7.9200    4.1250   -3.7570 C.3    21  TRP21       0.0394
     36  CG        -8.4250    5.4530   -3.3620 C.3    21  TRP21       0.0475
     37  CD1       -8.1190    6.0680   -2.2450 C.3    21  TRP21       0.1166
     38  NE1       -8.7560    7.2690   -2.1720 N.pl3  21  TRP21      -0.2376
     39  CE2       -9.5810    7.4730   -3.2750 C.ar   21  TRP21       0.0614
     40  CZ2      -10.4220    8.4750   -3.7020 C.ar   21  TRP21       0.0158
     41  CH2      -11.1680    8.3670   -4.9280 C.ar   21  TRP21       0.0013
     42  CZ3      -11.0860    7.1640   -5.6280 C.ar   21  TRP21      -0.0002
     43  CE3      -10.1730    6.1170   -5.2330 C.ar   21  TRP21      -0.0030
     44  CD2       -9.4090    6.2620   -4.0570 C.ar   21  TRP21      -0.0059
     45  C         -6.7510    4.7320   -6.0260 C.2    21  TRP21       0.3842
     46  O         -6.9370    3.8970   -6.9640 O.co2  21  TRP21      -0.2437
     47  OXT       -6.5930    5.9650   -6.2350 O.co2  21  TRP21      -0.2437
@<TRIPOS>BOND
     1    40    41   ar
     2    40    39   ar
     3    41    42   ar
     4    39    38    1
     5    39    44   ar
     6    42    43   ar
     7    38    37    1
     8    43    44   ar
     9    44    36    1
    10    37    36    1
    11    36    35    1
    12    47    45   ar
    13     5     4    1
    14    35    34    1
    15    45    34    1
    16    45    46   ar
    17    34    33    1
    18     8     7    2
    19     4     6    1
    20     4     3    1
    21     2     3    1
    22     2     1    1
    23     2     7    1
    24     7     9   am
    25    33    31   am
    26    32    31    2
    27    31    26    1
    28     9    10    1
    29    10    11    1
    30    10    15    1
    31    26    27    1
    32    26    25    1
    33    11    12    1
    34    13    12   ar
    35    27    29    1
    36    27    28    1
    37    29    30    1
    38    16    15    2
    39    15    17   am
    40    12    14   ar
    41    25    23   am
    42    17    18    1
    43    23    24    2
    44    23    18    1
    45    18    19    1
    46    19    21    1
    47    19    20    1
    48    21    22    1
