@<TRIPOS>MOLECULE
../ET1/ET1_17-21_50CONFORMERS_NOBACKBONE.pdb
 26 23 0 0 0
SMALL
GASTEIGER

@<TRIPOS>ATOM
      1  CB        -5.4380   -1.8950   -2.7790 C.3    17  LEU17       0.0000
      2  CG        -6.7550   -2.6670   -2.9110 C.3    17  LEU17       0.0000
      3  CD1       -7.2850   -2.7210   -4.3400 C.3    17  LEU17       0.0000
      4  CD2       -6.8480   -4.0480   -2.2330 C.3    17  LEU17       0.0000
      5  CB        -9.1740    0.7080   -0.6200 C.3    18  ASP18       0.1258
      6  CG       -10.4840    1.3320   -0.0080 C.2    18  ASP18       0.3654
      7  OD1      -10.9350    2.3810   -0.5440 O.co2  18  ASP18      -0.2456
      8  OD2      -10.9480    0.9000    1.0780 O.co2  18  ASP18      -0.2456
      9  CB        -5.5360    1.9540    2.7760 C.3    19  ILE19       0.0000
     10  CG2       -4.6680    2.8120    3.6680 C.3    19  ILE19       0.0000
     11  CG1       -6.4730    1.0320    3.5590 C.3    19  ILE19       0.0000
     12  CD1       -5.8010   -0.0580    4.4540 C.3    19  ILE19       0.0000
     13  CB        -2.4050    5.2660    0.1860 C.3    20  ILE20       0.0000
     14  CG2       -2.4630    5.8250    1.5680 C.3    20  ILE20       0.0000
     15  CG1       -1.2750    4.2120    0.0230 C.3    20  ILE20       0.0000
     16  CD1        0.1400    4.6590    0.4820 C.3    20  ILE20       0.0000
     17  CB        -4.0340    5.0970   -4.9050 C.3    21  TRP21       0.0066
     18  CG        -4.1420    4.4570   -6.2530 C.3    21  TRP21       0.0452
     19  CD1       -4.4200    5.1350   -7.3950 C.3    21  TRP21       0.1165
     20  NE1       -4.3580    4.3210   -8.4860 N.pl3  21  TRP21      -0.2376
     21  CE2       -4.2540    2.9980   -8.1000 C.ar   21  TRP21       0.0614
     22  CZ2       -4.2590    1.7930   -8.8040 C.ar   21  TRP21       0.0158
     23  CH2       -4.1230    0.5570   -8.1300 C.ar   21  TRP21       0.0013
     24  CZ3       -3.9250    0.5410   -6.7890 C.ar   21  TRP21      -0.0002
     25  CE3       -3.9150    1.7780   -6.0690 C.ar   21  TRP21      -0.0030
     26  CD2       -4.1040    3.0450   -6.6980 C.ar   21  TRP21      -0.0059
@<TRIPOS>BOND
     1    22    23   ar
     2    22    21   ar
     3    23    24   ar
     4    21    20    1
     5    21    26   ar
     6    24    25   ar
     7    20    19    1
     8    25    26   ar
     9    26    18    1
    10    19    18    1
    11    18    17    1
    12     3     2    1
    13     2     4    1
    14     2     1    1
    15     5     6    1
    16     7     6   ar
    17    13    15    1
    18    13    14    1
    19    15    16    1
    20     6     8   ar
    21     9    11    1
    22     9    10    1
    23    11    12    1
@<TRIPOS>MOLECULE
9911482
 30 32 0 0 0
SMALL
GASTEIGER

@<TRIPOS>ATOM
      1 S          -2.6454    0.1854   -0.8280 S.O2    1  LIG11       0.0758
      2 S           0.3316    1.7188   -3.4494 S.2     1  LIG11      -0.0902
      3 O          -3.6176   -1.3438    1.6503 O.2     1  LIG11      -0.3377
      4 O          -2.4900   -1.2439   -0.9321 O.2     1  LIG11      -0.1499
      5 O          -3.7410    0.9483   -1.3866 O.2     1  LIG11      -0.1499
      6 O          -2.9454   -0.2322   -3.9088 O.2     1  LIG11      -0.2692
      7 O          -2.3504    4.1809   -5.3112 O.2     1  LIG11      -0.2923
      8 N          -2.2068    1.6003   -5.0945 N.am    1  LIG11      -0.2802
      9 N          -2.5176    0.6922    0.7853 N.pl3   1  LIG11      -0.1831
     10 N          -4.5508   -1.6771    2.6112 N.ar    1  LIG11      -0.0810
     11 C          -3.0799    1.5409   -6.2094 C.ar    1  LIG11       0.0471
     12 C          -1.2451    0.8059   -1.6490 C.ar    1  LIG11       0.1277
     13 C          -3.3447    0.3445   -6.9088 C.ar    1  LIG11      -0.0283
     14 C          -3.6655    2.7490   -6.6665 C.ar    1  LIG11       0.0388
     15 C          -1.1831    1.0344   -3.0119 C.ar    1  LIG11       0.1007
     16 C          -4.8570    1.5473   -8.4159 C.ar    1  LIG11      -0.0494
     17 C          -4.2588    0.3625   -7.9809 C.ar    1  LIG11      -0.0541
     18 C          -4.5464    2.7399   -7.7596 C.ar    1  LIG11      -0.0466
     19 C          -2.1781    0.7161   -4.0295 C.2     1  LIG11       0.2568
     20 C          -3.4182    0.0010    1.6459 C.ar    1  LIG11       0.2399
     21 C          -0.0223    1.1257   -0.9795 C.ar    1  LIG11      -0.0273
     22 C          -4.2104    0.5827    2.6167 C.ar    1  LIG11       0.0350
     23 C          -2.6748   -0.9744   -6.6222 C.3     1  LIG11      -0.0379
     24 C          -3.3821    4.0459   -5.9701 C.2     1  LIG11       0.1619
     25 C          -4.9146   -0.5225    3.1764 C.ar    1  LIG11       0.0854
     26 C           0.9189    1.6309   -1.8474 C.ar    1  LIG11      -0.0217
     27 C          -5.8240    1.5442   -9.5633 C.3     1  LIG11      -0.0397
     28 C          -4.3672    2.0079    2.9813 C.3     1  LIG11      -0.0330
     29 C          -5.9538   -0.5103    4.2325 C.3     1  LIG11      -0.0188
     30 C          -4.3737    5.1755   -6.0921 C.3     1  LIG11      -0.0013
@<TRIPOS>BOND
     1     1     4    2
     2     1     5    2
     3     1     9    1
     4     1    12    1
     5     2    15   ar
     6     2    26   ar
     7     3    10   ar
     8     3    20   ar
     9     6    19    2
    10     7    24    2
    11     8    11    1
    12     8    19   am
    13     9    20    1
    14    10    25   ar
    15    11    13   ar
    16    11    14   ar
    17    12    15   ar
    18    12    21   ar
    19    13    17   ar
    20    13    23    1
    21    14    18   ar
    22    14    24    1
    23    15    19    1
    24    16    17   ar
    25    16    18   ar
    26    16    27    1
    27    20    22   ar
    28    21    26   ar
    29    22    25   ar
    30    22    28    1
    31    24    30    1
    32    25    29    1
@<TRIPOS>MOLECULE
../ET1/ET1_17-21_50CONFORMERS.pdb
 47 48 0 0 0
SMALL
GASTEIGER

@<TRIPOS>ATOM
      1  N         -4.2630    0.3380   -2.7220 N.3    17  LEU17      -0.1231
      2  CA        -5.4500   -0.3910   -3.2230 C.3    17  LEU17       0.1693
      3  CB        -5.4380   -1.8950   -2.7790 C.3    17  LEU17       0.0284
      4  CG        -6.7550   -2.6670   -2.9110 C.3    17  LEU17       0.0019
      5  CD1       -7.2850   -2.7210   -4.3400 C.3    17  LEU17       0.0001
      6  CD2       -6.8480   -4.0480   -2.2330 C.3    17  LEU17       0.0001
      7  C         -6.7300    0.4070   -2.8460 C.2    17  LEU17       0.2592
      8  O         -7.5370    0.6600   -3.7240 O.2    17  LEU17      -0.2718
      9  N         -6.9440    0.8630   -1.5980 N.am   18  ASP18      -0.1960
     10  CA        -8.1490    1.7210   -1.2230 C.3    18  ASP18       0.1840
     11  CB        -9.1740    0.7080   -0.6200 C.3    18  ASP18       0.1450
     12  CG       -10.4840    1.3320   -0.0080 C.2    18  ASP18       0.3671
     13  OD1      -10.9350    2.3810   -0.5440 O.co2  18  ASP18      -0.2456
     14  OD2      -10.9480    0.9000    1.0780 O.co2  18  ASP18      -0.2456
     15  C         -7.6430    2.6500   -0.1610 C.2    18  ASP18       0.2622
     16  O         -7.9550    3.8460   -0.1940 O.2    18  ASP18      -0.2715
     17  N         -6.9670    2.1560    0.8670 N.am   19  ILE19      -0.1963
     18  CA        -6.3940    2.9560    1.9650 C.3    19  ILE19       0.1727
     19  CB        -5.5360    1.9540    2.7760 C.3    19  ILE19       0.0290
     20  CG2       -4.6680    2.8120    3.6680 C.3    19  ILE19       0.0023
     21  CG1       -6.4730    1.0320    3.5590 C.3    19  ILE19       0.0022
     22  CD1       -5.8010   -0.0580    4.4540 C.3    19  ILE19       0.0001
     23  C         -5.6790    4.1480    1.3650 C.2    19  ILE19       0.2616
     24  O         -5.9890    5.2780    1.6670 O.2    19  ILE19      -0.2715
     25  N         -4.6480    3.9310    0.5270 N.am   20  ILE20      -0.1963
     26  CA        -3.8710    4.9160   -0.2870 C.3    20  ILE20       0.1727
     27  CB        -2.4050    5.2660    0.1860 C.3    20  ILE20       0.0290
     28  CG2       -2.4630    5.8250    1.5680 C.3    20  ILE20       0.0023
     29  CG1       -1.2750    4.2120    0.0230 C.3    20  ILE20       0.0022
     30  CD1        0.1400    4.6590    0.4820 C.3    20  ILE20       0.0001
     31  C         -3.8480    4.4920   -1.7150 C.2    20  ILE20       0.2617
     32  O         -4.4360    3.4530   -1.9970 O.2    20  ILE20      -0.2715
     33  N         -3.1870    5.2370   -2.6190 N.am   21  TRP21      -0.1941
     34  CA        -2.8600    4.7140   -3.9450 C.3    21  TRP21       0.1982
     35  CB        -4.0340    5.0970   -4.9050 C.3    21  TRP21       0.0394
     36  CG        -4.1420    4.4570   -6.2530 C.3    21  TRP21       0.0475
     37  CD1       -4.4200    5.1350   -7.3950 C.3    21  TRP21       0.1166
     38  NE1       -4.3580    4.3210   -8.4860 N.pl3  21  TRP21      -0.2376
     39  CE2       -4.2540    2.9980   -8.1000 C.ar   21  TRP21       0.0614
     40  CZ2       -4.2590    1.7930   -8.8040 C.ar   21  TRP21       0.0158
     41  CH2       -4.1230    0.5570   -8.1300 C.ar   21  TRP21       0.0013
     42  CZ3       -3.9250    0.5410   -6.7890 C.ar   21  TRP21      -0.0002
     43  CE3       -3.9150    1.7780   -6.0690 C.ar   21  TRP21      -0.0030
     44  CD2       -4.1040    3.0450   -6.6980 C.ar   21  TRP21      -0.0059
     45  C         -1.6020    5.3220   -4.5240 C.2    21  TRP21       0.3842
     46  O         -1.4010    6.4990   -4.2420 O.co2  21  TRP21      -0.2437
     47  OXT       -0.8340    4.7050   -5.2670 O.co2  21  TRP21      -0.2437
@<TRIPOS>BOND
     1    40    41   ar
     2    40    39   ar
     3    41    42   ar
     4    39    38    1
     5    39    44   ar
     6    42    43   ar
     7    38    37    1
     8    43    44   ar
     9    44    36    1
    10    37    36    1
    11    36    35    1
    12    47    45   ar
    13     5     4    1
    14    35    34    1
    15    45    34    1
    16    45    46   ar
    17    34    33    1
    18     8     7    2
    19     4     6    1
    20     4     3    1
    21     2     3    1
    22     2     1    1
    23     2     7    1
    24     7     9   am
    25    33    31   am
    26    32    31    2
    27    31    26    1
    28     9    10    1
    29    10    11    1
    30    10    15    1
    31    26    27    1
    32    26    25    1
    33    11    12    1
    34    13    12   ar
    35    27    29    1
    36    27    28    1
    37    29    30    1
    38    16    15    2
    39    15    17   am
    40    12    14   ar
    41    25    23   am
    42    17    18    1
    43    23    24    2
    44    23    18    1
    45    18    19    1
    46    19    21    1
    47    19    20    1
    48    21    22    1
