@<TRIPOS>MOLECULE
../ET1/ET1_17-21_50CONFORMERS_NOBACKBONE.pdb
 26 23 0 0 0
SMALL
GASTEIGER

@<TRIPOS>ATOM
      1  CB        -5.4700   -1.7730   -3.1120 C.3    17  LEU17       0.0000
      2  CG        -6.7900   -2.5440   -3.4740 C.3    17  LEU17       0.0000
      3  CD1       -7.0450   -2.3540   -4.9550 C.3    17  LEU17       0.0000
      4  CD2       -6.7910   -4.0540   -3.2680 C.3    17  LEU17       0.0000
      5  CB        -9.0330   -0.0920   -0.3620 C.3    18  ASP18       0.1258
      6  CG       -10.2330    0.4120    0.4010 C.2    18  ASP18       0.3654
      7  OD1      -11.1160    1.0220   -0.2680 O.co2  18  ASP18      -0.2456
      8  OD2      -10.4510    0.1630    1.6130 O.co2  18  ASP18      -0.2456
      9  CB        -5.4710    2.2040    3.1630 C.3    19  ILE19       0.0000
     10  CG2       -5.1840    3.1650    4.3090 C.3    19  ILE19       0.0000
     11  CG1       -6.1520    0.8640    3.6900 C.3    19  ILE19       0.0000
     12  CD1       -5.5640    0.1860    4.9100 C.3    19  ILE19       0.0000
     13  CB        -2.8050    5.3000    0.0680 C.3    20  ILE20       0.0000
     14  CG2       -2.8110    6.1260    1.4110 C.3    20  ILE20       0.0000
     15  CG1       -1.8290    4.1090    0.1720 C.3    20  ILE20       0.0000
     16  CD1       -0.3670    4.5410    0.3990 C.3    20  ILE20       0.0000
     17  CB        -4.4580    6.4030   -4.9110 C.3    21  TRP21       0.0066
     18  CG        -4.3280    6.3820   -6.4230 C.3    21  TRP21       0.0452
     19  CD1       -4.4150    7.5280   -7.1320 C.3    21  TRP21       0.1165
     20  NE1       -4.1980    7.3100   -8.4730 N.pl3  21  TRP21      -0.2376
     21  CE2       -4.0690    5.9840   -8.7560 C.ar   21  TRP21       0.0614
     22  CZ2       -3.7460    5.2670   -9.9520 C.ar   21  TRP21       0.0158
     23  CH2       -3.6540    3.8750   -9.8130 C.ar   21  TRP21       0.0013
     24  CZ3       -4.0280    3.2260   -8.6640 C.ar   21  TRP21      -0.0002
     25  CE3       -4.2890    4.0000   -7.5300 C.ar   21  TRP21      -0.0030
     26  CD2       -4.2870    5.3570   -7.4880 C.ar   21  TRP21      -0.0059
@<TRIPOS>BOND
     1    22    23   ar
     2    22    21   ar
     3    23    24   ar
     4    21    20    1
     5    21    26   ar
     6    24    25   ar
     7    20    19    1
     8    25    26   ar
     9    26    18    1
    10    19    18    1
    11    18    17    1
    12     3     2    1
    13     2     4    1
    14     2     1    1
    15     5     6    1
    16     7     6   ar
    17    13    15    1
    18    13    14    1
    19    15    16    1
    20     6     8   ar
    21     9    11    1
    22     9    10    1
    23    11    12    1
@<TRIPOS>MOLECULE
104865
 39 42 0 0 0
SMALL
GASTEIGER

@<TRIPOS>ATOM
      1 S          -3.9733    2.1211   -3.1970 S.O2    1  LIG11       0.0736
      2 O          -2.8660    1.2011   -3.3644 O.2     1  LIG11      -0.1499
      3 O          -3.8593    3.4991   -3.6237 O.2     1  LIG11      -0.1499
      4 O          -5.1960    2.3155   -6.5598 O.3     1  LIG11      -0.4435
      5 O          -7.4168    3.9372   -7.4235 O.3     1  LIG11      -0.4715
      6 O          -4.6133    1.3714   -8.9647 O.3     1  LIG11      -0.4914
      7 O          -9.5483    6.5584   -8.8237 O.3     1  LIG11      -0.3917
      8 N          -5.2865    1.3917   -3.9608 N.pl3   1  LIG11      -0.1963
      9 N          -7.1853    2.6548   -3.5441 N.ar    1  LIG11      -0.2044
     10 N          -8.2331    3.9459   -5.2534 N.ar    1  LIG11      -0.1866
     11 N          -9.7849    5.1543   -3.2686 N.ar    1  LIG11      -0.2331
     12 N          -9.4965    3.1745   -1.9638 N.ar    1  LIG11      -0.2331
     13 C          -5.2915    2.1012    2.7959 C.3     1  LIG11      -0.0127
     14 C          -4.9952    2.1178    1.2850 C.ar    1  LIG11      -0.0419
     15 C          -3.9792    1.9052    3.5862 C.3     1  LIG11      -0.0560
     16 C          -6.2565    0.9405    3.1190 C.3     1  LIG11      -0.0560
     17 C          -5.9460    3.4004    3.3182 C.3     1  LIG11      -0.0560
     18 C          -4.3769    1.0071    0.6738 C.ar    1  LIG11      -0.0562
     19 C          -5.3184    3.2126    0.4631 C.ar    1  LIG11      -0.0562
     20 C          -4.4299    2.0886   -1.4832 C.ar    1  LIG11       0.1086
     21 C          -4.0895    0.9906   -0.6946 C.ar    1  LIG11      -0.0348
     22 C          -5.0343    3.2041   -0.9068 C.ar    1  LIG11      -0.0348
     23 C          -6.2710    2.2880   -4.4535 C.ar    1  LIG11       0.1883
     24 C          -6.2149    2.7501   -5.7546 C.ar    1  LIG11       0.2307
     25 C          -7.2624    3.5743   -6.1059 C.ar    1  LIG11       0.2642
     26 C          -8.1490    3.4944   -3.9815 C.ar    1  LIG11       0.2027
     27 C          -4.6545    3.1980   -7.4732 C.ar    1  LIG11       0.1702
     28 C          -9.1884    3.9615   -3.0211 C.ar    1  LIG11       0.1978
     29 C          -7.9001    5.2701   -7.6086 C.3     1  LIG11       0.1143
     30 C          -4.3646    2.7037   -8.7546 C.ar    1  LIG11       0.1621
     31 C          -4.3553    4.5264   -7.1427 C.ar    1  LIG11      -0.0157
     32 C          -3.8823    3.5829   -9.7289 C.ar    1  LIG11      -0.0163
     33 C          -9.1121    5.2363   -8.5293 C.3     1  LIG11       0.0783
     34 C          -3.8708    5.3929   -8.1215 C.ar    1  LIG11      -0.0581
     35 C          -3.6502    4.9258   -9.4154 C.ar    1  LIG11      -0.0581
     36 C         -10.7335    5.5532   -2.4041 C.ar    1  LIG11       0.0315
     37 C         -10.4618    3.6213   -1.1395 C.ar    1  LIG11       0.0315
     38 C         -11.1200    4.8158   -1.3121 C.ar    1  LIG11      -0.0254
     39 C          -3.9563    0.7753  -10.0769 C.3     1  LIG11       0.0790
@<TRIPOS>BOND
     1     1     2    2
     2     1     3    2
     3     1     8    1
     4     1    20    1
     5     4    24    1
     6     4    27    1
     7     5    25    1
     8     5    29    1
     9     6    30    1
    10     6    39    1
    11     7    33    1
    12     8    23    1
    13     9    23   ar
    14     9    26   ar
    15    10    25   ar
    16    10    26   ar
    17    11    28   ar
    18    11    36   ar
    19    12    28   ar
    20    12    37   ar
    21    13    14    1
    22    13    15    1
    23    13    16    1
    24    13    17    1
    25    14    18   ar
    26    14    19   ar
    27    18    21   ar
    28    19    22   ar
    29    20    21   ar
    30    20    22   ar
    31    23    24   ar
    32    24    25   ar
    33    26    28    1
    34    27    30   ar
    35    27    31   ar
    36    29    33    1
    37    30    32   ar
    38    31    34   ar
    39    32    35   ar
    40    34    35   ar
    41    36    38   ar
    42    37    38   ar
@<TRIPOS>MOLECULE
../ET1/ET1_17-21_50CONFORMERS.pdb
 47 48 0 0 0
SMALL
GASTEIGER

@<TRIPOS>ATOM
      1  N         -4.2160    0.4160   -2.9520 N.3    17  LEU17      -0.1231
      2  CA        -5.4630   -0.2520   -3.4030 C.3    17  LEU17       0.1693
      3  CB        -5.4700   -1.7730   -3.1120 C.3    17  LEU17       0.0284
      4  CG        -6.7900   -2.5440   -3.4740 C.3    17  LEU17       0.0019
      5  CD1       -7.0450   -2.3540   -4.9550 C.3    17  LEU17       0.0001
      6  CD2       -6.7910   -4.0540   -3.2680 C.3    17  LEU17       0.0001
      7  C         -6.7900    0.3610   -2.8310 C.2    17  LEU17       0.2592
      8  O         -7.6240    0.6580   -3.6850 O.2    17  LEU17      -0.2718
      9  N         -6.9720    0.5400   -1.5390 N.am   18  ASP18      -0.1960
     10  CA        -8.1540    1.0840   -0.8410 C.3    18  ASP18       0.1840
     11  CB        -9.0330   -0.0920   -0.3620 C.3    18  ASP18       0.1450
     12  CG       -10.2330    0.4120    0.4010 C.2    18  ASP18       0.3671
     13  OD1      -11.1160    1.0220   -0.2680 O.co2  18  ASP18      -0.2456
     14  OD2      -10.4510    0.1630    1.6130 O.co2  18  ASP18      -0.2456
     15  C         -7.7900    2.1820    0.2340 C.2    18  ASP18       0.2622
     16  O         -8.3300    3.2620    0.2010 O.2    18  ASP18      -0.2715
     17  N         -6.8500    1.8540    1.1550 N.am   19  ILE19      -0.1963
     18  CA        -6.3420    2.8860    2.0970 C.3    19  ILE19       0.1727
     19  CB        -5.4710    2.2040    3.1630 C.3    19  ILE19       0.0290
     20  CG2       -5.1840    3.1650    4.3090 C.3    19  ILE19       0.0023
     21  CG1       -6.1520    0.8640    3.6900 C.3    19  ILE19       0.0022
     22  CD1       -5.5640    0.1860    4.9100 C.3    19  ILE19       0.0001
     23  C         -5.7590    4.0730    1.4210 C.2    19  ILE19       0.2616
     24  O         -6.0490    5.1730    1.8250 O.2    19  ILE19      -0.2715
     25  N         -4.8150    3.8950    0.4790 N.am   20  ILE20      -0.1963
     26  CA        -4.2330    4.9020   -0.4020 C.3    20  ILE20       0.1727
     27  CB        -2.8050    5.3000    0.0680 C.3    20  ILE20       0.0290
     28  CG2       -2.8110    6.1260    1.4110 C.3    20  ILE20       0.0023
     29  CG1       -1.8290    4.1090    0.1720 C.3    20  ILE20       0.0022
     30  CD1       -0.3670    4.5410    0.3990 C.3    20  ILE20       0.0001
     31  C         -4.1810    4.4800   -1.8450 C.2    20  ILE20       0.2617
     32  O         -4.4770    3.2490   -2.1480 O.2    20  ILE20      -0.2715
     33  N         -3.9440    5.5160   -2.6450 N.am   21  TRP21      -0.1941
     34  CA        -3.5940    5.3680   -4.0770 C.3    21  TRP21       0.1982
     35  CB        -4.4580    6.4030   -4.9110 C.3    21  TRP21       0.0394
     36  CG        -4.3280    6.3820   -6.4230 C.3    21  TRP21       0.0475
     37  CD1       -4.4150    7.5280   -7.1320 C.3    21  TRP21       0.1166
     38  NE1       -4.1980    7.3100   -8.4730 N.pl3  21  TRP21      -0.2376
     39  CE2       -4.0690    5.9840   -8.7560 C.ar   21  TRP21       0.0614
     40  CZ2       -3.7460    5.2670   -9.9520 C.ar   21  TRP21       0.0158
     41  CH2       -3.6540    3.8750   -9.8130 C.ar   21  TRP21       0.0013
     42  CZ3       -4.0280    3.2260   -8.6640 C.ar   21  TRP21      -0.0002
     43  CE3       -4.2890    4.0000   -7.5300 C.ar   21  TRP21      -0.0030
     44  CD2       -4.2870    5.3570   -7.4880 C.ar   21  TRP21      -0.0059
     45  C         -2.1160    5.4700   -4.2830 C.2    21  TRP21       0.3842
     46  O         -1.4560    6.4110   -3.8260 O.co2  21  TRP21      -0.2437
     47  OXT       -1.5070    4.6100   -5.0100 O.co2  21  TRP21      -0.2437
@<TRIPOS>BOND
     1    40    41   ar
     2    40    39   ar
     3    41    42   ar
     4    39    38    1
     5    39    44   ar
     6    42    43   ar
     7    38    37    1
     8    43    44   ar
     9    44    36    1
    10    37    36    1
    11    36    35    1
    12    47    45   ar
    13     5     4    1
    14    35    34    1
    15    45    34    1
    16    45    46   ar
    17    34    33    1
    18     8     7    2
    19     4     6    1
    20     4     3    1
    21     2     3    1
    22     2     1    1
    23     2     7    1
    24     7     9   am
    25    33    31   am
    26    32    31    2
    27    31    26    1
    28     9    10    1
    29    10    11    1
    30    10    15    1
    31    26    27    1
    32    26    25    1
    33    11    12    1
    34    13    12   ar
    35    27    29    1
    36    27    28    1
    37    29    30    1
    38    16    15    2
    39    15    17   am
    40    12    14   ar
    41    25    23   am
    42    17    18    1
    43    23    24    2
    44    23    18    1
    45    18    19    1
    46    19    21    1
    47    19    20    1
    48    21    22    1
