@<TRIPOS>MOLECULE
../ET1/ET1_17-21_50CONFORMERS_NOBACKBONE.pdb
 26 23 0 0 0
SMALL
GASTEIGER

@<TRIPOS>ATOM
      1  CB        -6.2920   -2.1760   -1.0600 C.3    17  LEU17       0.0000
      2  CG        -7.3810   -3.1070   -1.5860 C.3    17  LEU17       0.0000
      3  CD1       -6.9450   -3.7990   -2.8500 C.3    17  LEU17       0.0000
      4  CD2       -7.7240   -4.1790   -0.5430 C.3    17  LEU17       0.0000
      5  CB        -9.4910    0.8860    0.2600 C.3    18  ASP18       0.1258
      6  CG       -10.8750    1.6030    0.4550 C.2    18  ASP18       0.3654
      7  OD1      -11.4860    2.1330   -0.5300 O.co2  18  ASP18      -0.2456
      8  OD2      -11.4410    1.7200    1.5770 O.co2  18  ASP18      -0.2456
      9  CB        -5.6210    3.8030    2.9640 C.3    19  ILE19       0.0000
     10  CG2       -5.2590    5.0340    3.8530 C.3    19  ILE19       0.0000
     11  CG1       -6.2890    2.7240    3.8510 C.3    19  ILE19       0.0000
     12  CD1       -7.4570    3.2800    4.6780 C.3    19  ILE19       0.0000
     13  CB        -3.0360    5.7160   -0.8090 C.3    20  ILE20       0.0000
     14  CG2       -2.9090    6.9430    0.1270 C.3    20  ILE20       0.0000
     15  CG1       -2.3000    4.4780   -0.2360 C.3    20  ILE20       0.0000
     16  CD1       -0.7510    4.6320   -0.0640 C.3    20  ILE20       0.0000
     17  CB        -6.2060    4.6960   -5.0710 C.3    21  TRP21       0.0066
     18  CG        -7.5330    5.1540   -4.5320 C.3    21  TRP21       0.0452
     19  CD1       -8.0300    4.7650   -3.3860 C.3    21  TRP21       0.1165
     20  NE1       -9.3510    5.1570   -3.2800 N.pl3  21  TRP21      -0.2376
     21  CE2       -9.6980    5.9810   -4.3630 C.ar   21  TRP21       0.0614
     22  CZ2      -10.8900    6.6110   -4.7560 C.ar   21  TRP21       0.0158
     23  CH2      -10.9230    7.4890   -5.8630 C.ar   21  TRP21       0.0013
     24  CZ3       -9.7770    7.6770   -6.6190 C.ar   21  TRP21      -0.0002
     25  CE3       -8.6250    6.9020   -6.2810 C.ar   21  TRP21      -0.0030
     26  CD2       -8.5240    6.0800   -5.1280 C.ar   21  TRP21      -0.0059
@<TRIPOS>BOND
     1    22    23   ar
     2    22    21   ar
     3    23    24   ar
     4    21    20    1
     5    21    26   ar
     6    24    25   ar
     7    20    19    1
     8    25    26   ar
     9    26    18    1
    10    19    18    1
    11    18    17    1
    12     3     2    1
    13     2     4    1
    14     2     1    1
    15     5     6    1
    16     7     6   ar
    17    13    15    1
    18    13    14    1
    19    15    16    1
    20     6     8   ar
    21     9    11    1
    22     9    10    1
    23    11    12    1
@<TRIPOS>MOLECULE
9912992
 34 37 0 0 0
SMALL
GASTEIGER

@<TRIPOS>ATOM
      1 S          -7.6367   10.1585   -2.8817 S.O2    1  LIG11       0.0908
      2 O          -8.7064    6.2803   -3.0984 O.3     1  LIG11      -0.4435
      3 O          -8.8969    4.9368   -0.8270 O.3     1  LIG11      -0.4771
      4 O          -7.7954   11.2624   -1.9598 O.2     1  LIG11      -0.1484
      5 O          -7.3196   10.4223   -4.2775 O.2     1  LIG11      -0.1484
      6 O          -7.0578    6.4478   -5.3729 O.3     1  LIG11      -0.4914
      7 N          -9.0605    9.2513   -2.9407 N.pl3   1  LIG11      -0.1950
      8 N          -9.6157    8.9586   -0.7237 N.ar    1  LIG11      -0.2073
      9 N          -9.4657    6.8647    0.3896 N.ar    1  LIG11      -0.1899
     10 N          -6.4292    8.8475   -0.9088 N.ar    1  LIG11      -0.2351
     11 N         -10.6415   10.0736    4.1240 N.ar    1  LIG11      -0.2632
     12 C          -9.2924    8.3465   -1.8720 C.ar    1  LIG11       0.1882
     13 C          -9.0867    6.9817   -1.9870 C.ar    1  LIG11       0.2307
     14 C          -6.3736    9.0480   -2.2521 C.ar    1  LIG11       0.1969
     15 C          -9.1603    6.2965   -0.7902 C.ar    1  LIG11       0.2638
     16 C          -9.6809    8.1917    0.3766 C.ar    1  LIG11       0.1659
     17 C          -5.4448    8.4628   -3.0963 C.ar    1  LIG11      -0.0160
     18 C         -10.0051    8.8397    1.6597 C.ar    1  LIG11       0.0222
     19 C          -9.2641    6.5777   -4.3164 C.ar    1  LIG11       0.1702
     20 C          -4.5159    7.3910   -1.1380 C.ar    1  LIG11      -0.0322
     21 C          -4.5032    7.6127   -2.5196 C.ar    1  LIG11      -0.0541
     22 C          -5.4942    8.0329   -0.3851 C.ar    1  LIG11       0.0327
     23 C          -8.4079    6.6766   -5.4215 C.ar    1  LIG11       0.1621
     24 C         -10.6368    6.8025   -4.4739 C.ar    1  LIG11      -0.0157
     25 C          -3.5174    6.5021   -0.4669 C.3     1  LIG11      -0.0383
     26 C         -10.0848    8.1034    2.8528 C.ar    1  LIG11      -0.0329
     27 C         -10.2466   10.2181    1.7472 C.ar    1  LIG11      -0.0329
     28 C          -8.9068    7.1259   -6.6439 C.ar    1  LIG11      -0.0163
     29 C         -11.1329    7.2264   -5.7078 C.ar    1  LIG11      -0.0581
     30 C         -10.2664    7.4048   -6.7860 C.ar    1  LIG11      -0.0581
     31 C         -10.3998    8.7515    4.0366 C.ar    1  LIG11       0.0282
     32 C         -10.5568   10.7783    2.9769 C.ar    1  LIG11       0.0282
     33 C          -8.7887    4.3434    0.4626 C.3     1  LIG11       0.0805
     34 C          -6.7226    5.1722   -4.8225 C.3     1  LIG11       0.0790
@<TRIPOS>BOND
     1     1     4    2
     2     1     5    2
     3     1     7    1
     4     1    14    1
     5     2    13    1
     6     2    19    1
     7     3    15    1
     8     3    33    1
     9     6    23    1
    10     6    34    1
    11     7    12    1
    12     8    12   ar
    13     8    16   ar
    14     9    15   ar
    15     9    16   ar
    16    10    14   ar
    17    10    22   ar
    18    11    31   ar
    19    11    32   ar
    20    12    13   ar
    21    13    15   ar
    22    14    17   ar
    23    16    18    1
    24    17    21   ar
    25    18    26   ar
    26    18    27   ar
    27    19    23   ar
    28    19    24   ar
    29    20    21   ar
    30    20    22   ar
    31    20    25    1
    32    23    28   ar
    33    24    29   ar
    34    26    31   ar
    35    27    32   ar
    36    28    30   ar
    37    29    30   ar
@<TRIPOS>MOLECULE
../ET1/ET1_17-21_50CONFORMERS.pdb
 47 48 0 0 0
SMALL
GASTEIGER

@<TRIPOS>ATOM
      1  N         -4.8630   -0.1330   -1.6160 N.3    17  LEU17      -0.1231
      2  CA        -6.0890   -0.9020   -1.9640 C.3    17  LEU17       0.1693
      3  CB        -6.2920   -2.1760   -1.0600 C.3    17  LEU17       0.0284
      4  CG        -7.3810   -3.1070   -1.5860 C.3    17  LEU17       0.0019
      5  CD1       -6.9450   -3.7990   -2.8500 C.3    17  LEU17       0.0001
      6  CD2       -7.7240   -4.1790   -0.5430 C.3    17  LEU17       0.0001
      7  C         -7.2690    0.0540   -2.0040 C.2    17  LEU17       0.2592
      8  O         -8.0910    0.0700   -2.9040 O.2    17  LEU17      -0.2718
      9  N         -7.3890    0.8570   -0.9180 N.am   18  ASP18      -0.1960
     10  CA        -8.5480    1.7130   -0.5520 C.3    18  ASP18       0.1840
     11  CB        -9.4910    0.8860    0.2600 C.3    18  ASP18       0.1450
     12  CG       -10.8750    1.6030    0.4550 C.2    18  ASP18       0.3671
     13  OD1      -11.4860    2.1330   -0.5300 O.co2  18  ASP18      -0.2456
     14  OD2      -11.4410    1.7200    1.5770 O.co2  18  ASP18      -0.2456
     15  C         -8.1680    3.0400    0.1660 C.2    18  ASP18       0.2622
     16  O         -8.7860    4.0760   -0.0800 O.2    18  ASP18      -0.2715
     17  N         -7.0630    2.9750    0.9960 N.am   19  ILE19      -0.1963
     18  CA        -6.6490    4.1630    1.8650 C.3    19  ILE19       0.1727
     19  CB        -5.6210    3.8030    2.9640 C.3    19  ILE19       0.0290
     20  CG2       -5.2590    5.0340    3.8530 C.3    19  ILE19       0.0023
     21  CG1       -6.2890    2.7240    3.8510 C.3    19  ILE19       0.0022
     22  CD1       -7.4570    3.2800    4.6780 C.3    19  ILE19       0.0001
     23  C         -6.0450    5.2550    0.9960 C.2    19  ILE19       0.2616
     24  O         -6.2860    6.5130    1.2110 O.2    19  ILE19      -0.2715
     25  N         -5.2500    4.8220    0.0030 N.am   20  ILE20      -0.1963
     26  CA        -4.5240    5.4980   -1.0530 C.3    20  ILE20       0.1727
     27  CB        -3.0360    5.7160   -0.8090 C.3    20  ILE20       0.0290
     28  CG2       -2.9090    6.9430    0.1270 C.3    20  ILE20       0.0023
     29  CG1       -2.3000    4.4780   -0.2360 C.3    20  ILE20       0.0022
     30  CD1       -0.7510    4.6320   -0.0640 C.3    20  ILE20       0.0001
     31  C         -4.7230    4.8530   -2.3940 C.2    20  ILE20       0.2617
     32  O         -4.8010    3.6250   -2.5370 O.2    20  ILE20      -0.2715
     33  N         -4.8210    5.7560   -3.3720 N.am   21  TRP21      -0.1941
     34  CA        -4.9310    5.4940   -4.7570 C.3    21  TRP21       0.1982
     35  CB        -6.2060    4.6960   -5.0710 C.3    21  TRP21       0.0394
     36  CG        -7.5330    5.1540   -4.5320 C.3    21  TRP21       0.0475
     37  CD1       -8.0300    4.7650   -3.3860 C.3    21  TRP21       0.1166
     38  NE1       -9.3510    5.1570   -3.2800 N.pl3  21  TRP21      -0.2376
     39  CE2       -9.6980    5.9810   -4.3630 C.ar   21  TRP21       0.0614
     40  CZ2      -10.8900    6.6110   -4.7560 C.ar   21  TRP21       0.0158
     41  CH2      -10.9230    7.4890   -5.8630 C.ar   21  TRP21       0.0013
     42  CZ3       -9.7770    7.6770   -6.6190 C.ar   21  TRP21      -0.0002
     43  CE3       -8.6250    6.9020   -6.2810 C.ar   21  TRP21      -0.0030
     44  CD2       -8.5240    6.0800   -5.1280 C.ar   21  TRP21      -0.0059
     45  C         -4.8680    6.8010   -5.4940 C.2    21  TRP21       0.3842
     46  O         -5.2190    7.8130   -4.8570 O.co2  21  TRP21      -0.2437
     47  OXT       -4.4930    6.7370   -6.6880 O.co2  21  TRP21      -0.2437
@<TRIPOS>BOND
     1    40    41   ar
     2    40    39   ar
     3    41    42   ar
     4    39    38    1
     5    39    44   ar
     6    42    43   ar
     7    38    37    1
     8    43    44   ar
     9    44    36    1
    10    37    36    1
    11    36    35    1
    12    47    45   ar
    13     5     4    1
    14    35    34    1
    15    45    34    1
    16    45    46   ar
    17    34    33    1
    18     8     7    2
    19     4     6    1
    20     4     3    1
    21     2     3    1
    22     2     1    1
    23     2     7    1
    24     7     9   am
    25    33    31   am
    26    32    31    2
    27    31    26    1
    28     9    10    1
    29    10    11    1
    30    10    15    1
    31    26    27    1
    32    26    25    1
    33    11    12    1
    34    13    12   ar
    35    27    29    1
    36    27    28    1
    37    29    30    1
    38    16    15    2
    39    15    17   am
    40    12    14   ar
    41    25    23   am
    42    17    18    1
    43    23    24    2
    44    23    18    1
    45    18    19    1
    46    19    21    1
    47    19    20    1
    48    21    22    1
