@<TRIPOS>MOLECULE
../ET1/ET1_17-21_50CONFORMERS_NOBACKBONE.pdb
 26 23 0 0 0
SMALL
GASTEIGER

@<TRIPOS>ATOM
      1  CB        -5.3560   -2.2900   -1.7830 C.3    17  LEU17       0.0000
      2  CG        -6.4760   -3.0290   -2.4750 C.3    17  LEU17       0.0000
      3  CD1       -6.2460   -3.2750   -3.9950 C.3    17  LEU17       0.0000
      4  CD2       -6.7070   -4.3800   -1.8000 C.3    17  LEU17       0.0000
      5  CB        -9.0030    0.4660    0.1580 C.3    18  ASP18       0.1258
      6  CG       -10.2670    1.1070    0.6710 C.2    18  ASP18       0.3654
      7  OD1      -11.1760    1.2900   -0.1540 O.co2  18  ASP18      -0.2456
      8  OD2      -10.3690    1.4160    1.8940 O.co2  18  ASP18      -0.2456
      9  CB        -5.2180    2.7200    3.5750 C.3    19  ILE19       0.0000
     10  CG2       -4.8060    3.6720    4.6700 C.3    19  ILE19       0.0000
     11  CG1       -5.8090    1.5280    4.2320 C.3    19  ILE19       0.0000
     12  CD1       -4.8420    0.7110    5.1680 C.3    19  ILE19       0.0000
     13  CB        -2.6020    4.7750   -0.4510 C.3    20  ILE20       0.0000
     14  CG2       -1.9250    5.5880   -1.5590 C.3    20  ILE20       0.0000
     15  CG1       -2.1130    5.4100    0.8700 C.3    20  ILE20       0.0000
     16  CD1       -0.6410    5.2720    1.1280 C.3    20  ILE20       0.0000
     17  CB        -6.8980    3.9970   -4.4200 C.3    21  TRP21       0.0066
     18  CG        -7.0900    3.4860   -5.7850 C.3    21  TRP21       0.0452
     19  CD1       -7.8000    3.9920   -6.7820 C.3    21  TRP21       0.1165
     20  NE1       -7.7190    3.1220   -7.8250 N.pl3  21  TRP21      -0.2376
     21  CE2       -6.9230    2.0360   -7.5630 C.ar   21  TRP21       0.0614
     22  CZ2       -6.5610    0.9120   -8.3240 C.ar   21  TRP21       0.0158
     23  CH2       -5.7330   -0.0520   -7.5920 C.ar   21  TRP21       0.0013
     24  CZ3       -5.3240    0.1220   -6.2550 C.ar   21  TRP21      -0.0002
     25  CE3       -5.6720    1.3160   -5.6250 C.ar   21  TRP21      -0.0030
     26  CD2       -6.4830    2.2690   -6.2400 C.ar   21  TRP21      -0.0059
@<TRIPOS>BOND
     1    22    23   ar
     2    22    21   ar
     3    23    24   ar
     4    21    20    1
     5    21    26   ar
     6    24    25   ar
     7    20    19    1
     8    25    26   ar
     9    26    18    1
    10    19    18    1
    11    18    17    1
    12     3     2    1
    13     2     4    1
    14     2     1    1
    15     5     6    1
    16     7     6   ar
    17    13    15    1
    18    13    14    1
    19    15    16    1
    20     6     8   ar
    21     9    11    1
    22     9    10    1
    23    11    12    1
@<TRIPOS>MOLECULE
6433095
 41 45 0 0 0
SMALL
GASTEIGER

@<TRIPOS>ATOM
      1 S          -0.4273    0.5191   -6.1461 S.O2    1  LIG11       0.0908
      2 O          -3.5141   -0.9038   -6.4469 O.3     1  LIG11      -0.4435
      3 O          -5.3410   -1.9375   -4.5174 O.3     1  LIG11      -0.4715
      4 O          -1.0866    0.7450   -7.4221 O.2     1  LIG11      -0.1484
      5 O           1.0069    0.7005   -6.0557 O.2     1  LIG11      -0.1484
      6 O          -4.8110   -1.0998   -8.7534 O.3     1  LIG11      -0.4914
      7 O          -6.9409   -4.4323   -4.0804 O.3     1  LIG11      -0.3917
      8 N          -0.7805   -1.1007   -5.7873 N.pl3   1  LIG11      -0.1950
      9 N          -1.3576   -1.7165   -3.6418 N.ar    1  LIG11      -0.2073
     10 N          -3.6038   -2.0732   -2.9585 N.ar    1  LIG11      -0.1899
     11 N          -0.9765    1.3165   -3.6587 N.ar    1  LIG11      -0.2351
     12 N          -1.0320   -2.8412    1.2954 N.ar    1  LIG11      -0.2552
     13 N           1.6656   -3.6682    1.8187 N.ar    1  LIG11      -0.5621
     14 N           2.0690   -3.8944   -0.3948 N.ar    1  LIG11      -0.1535
     15 N           2.8758   -4.1592    1.5314 N.ar    1  LIG11      -0.3597
     16 N           3.1582   -4.3123    0.2339 N.ar    1  LIG11      -0.0878
     17 C          -1.8226   -1.3595   -4.8481 C.ar    1  LIG11       0.1882
     18 C          -3.1612   -1.2976   -5.1863 C.ar    1  LIG11       0.2307
     19 C          -4.0122   -1.7502   -4.2000 C.ar    1  LIG11       0.2641
     20 C          -2.2814   -2.0170   -2.7212 C.ar    1  LIG11       0.1659
     21 C          -1.2087    1.6093   -4.9629 C.ar    1  LIG11       0.1969
     22 C          -1.8402   -2.3021   -1.3481 C.ar    1  LIG11       0.0227
     23 C          -1.9630    2.6861   -5.4044 C.ar    1  LIG11      -0.0160
     24 C          -4.6165   -0.0870   -6.6192 C.ar    1  LIG11       0.1702
     25 C          -0.5373   -2.7391   -1.0630 C.ar    1  LIG11      -0.0252
     26 C          -2.2838    3.2726   -3.0860 C.ar    1  LIG11      -0.0322
     27 C          -2.5103    3.5289   -4.4413 C.ar    1  LIG11      -0.0541
     28 C          -2.7188   -2.1440   -0.2656 C.ar    1  LIG11      -0.0328
     29 C          -6.2098   -2.2188   -3.4146 C.3     1  LIG11       0.1143
     30 C          -0.1720   -3.0059    0.2555 C.ar    1  LIG11       0.0708
     31 C          -1.5111    2.1623   -2.7540 C.ar    1  LIG11       0.0327
     32 C          -5.2981   -0.1993   -7.8397 C.ar    1  LIG11       0.1621
     33 C          -5.0396    0.8605   -5.6763 C.ar    1  LIG11      -0.0157
     34 C          -2.2762   -2.4160    1.0150 C.ar    1  LIG11       0.0289
     35 C          -2.8207    4.1698   -2.0159 C.3     1  LIG11      -0.0383
     36 C          -6.2361   -3.7090   -3.0725 C.3     1  LIG11       0.0783
     37 C          -6.4576    0.5517   -8.0591 C.ar    1  LIG11      -0.0163
     38 C          -6.1867    1.6204   -5.9093 C.ar    1  LIG11      -0.0581
     39 C          -6.9031    1.4548   -7.0920 C.ar    1  LIG11      -0.0581
     40 C           1.1672   -3.5066    0.5757 C.ar    1  LIG11       0.0207
     41 C          -4.8670   -0.6447  -10.1029 C.3     1  LIG11       0.0790
@<TRIPOS>BOND
     1     1     4    2
     2     1     5    2
     3     1     8    1
     4     1    21    1
     5     2    18    1
     6     2    24    1
     7     3    19    1
     8     3    29    1
     9     6    32    1
    10     6    41    1
    11     7    36    1
    12     8    17    1
    13     9    17   ar
    14     9    20   ar
    15    10    19   ar
    16    10    20   ar
    17    11    21   ar
    18    11    31   ar
    19    12    30   ar
    20    12    34   ar
    21    13    15   ar
    22    13    40   ar
    23    14    16   ar
    24    14    40   ar
    25    15    16   ar
    26    17    18   ar
    27    18    19   ar
    28    20    22    1
    29    21    23   ar
    30    22    25   ar
    31    22    28   ar
    32    23    27   ar
    33    24    32   ar
    34    24    33   ar
    35    25    30   ar
    36    26    27   ar
    37    26    31   ar
    38    26    35    1
    39    28    34   ar
    40    29    36    1
    41    30    40    1
    42    32    37   ar
    43    33    38   ar
    44    37    39   ar
    45    38    39   ar
@<TRIPOS>MOLECULE
../ET1/ET1_17-21_50CONFORMERS.pdb
 47 48 0 0 0
SMALL
GASTEIGER

@<TRIPOS>ATOM
      1  N         -4.0900   -0.2970   -1.4470 N.3    17  LEU17      -0.1231
      2  CA        -5.2620   -0.8480   -2.1630 C.3    17  LEU17       0.1693
      3  CB        -5.3560   -2.2900   -1.7830 C.3    17  LEU17       0.0284
      4  CG        -6.4760   -3.0290   -2.4750 C.3    17  LEU17       0.0019
      5  CD1       -6.2460   -3.2750   -3.9950 C.3    17  LEU17       0.0001
      6  CD2       -6.7070   -4.3800   -1.8000 C.3    17  LEU17       0.0001
      7  C         -6.5020    0.1340   -2.0070 C.2    17  LEU17       0.2592
      8  O         -7.2050    0.4710   -2.9570 O.2    17  LEU17      -0.2718
      9  N         -6.8000    0.5090   -0.7980 N.am   18  ASP18      -0.1960
     10  CA        -7.9320    1.3520   -0.3740 C.3    18  ASP18       0.1840
     11  CB        -9.0030    0.4660    0.1580 C.3    18  ASP18       0.1450
     12  CG       -10.2670    1.1070    0.6710 C.2    18  ASP18       0.3671
     13  OD1      -11.1760    1.2900   -0.1540 O.co2  18  ASP18      -0.2456
     14  OD2      -10.3690    1.4160    1.8940 O.co2  18  ASP18      -0.2456
     15  C         -7.5940    2.4800    0.5860 C.2    18  ASP18       0.2622
     16  O         -8.0260    3.6170    0.3370 O.2    18  ASP18      -0.2715
     17  N         -6.7210    2.3240    1.5870 N.am   19  ILE19      -0.1963
     18  CA        -6.1230    3.3640    2.4450 C.3    19  ILE19       0.1727
     19  CB        -5.2180    2.7200    3.5750 C.3    19  ILE19       0.0290
     20  CG2       -4.8060    3.6720    4.6700 C.3    19  ILE19       0.0023
     21  CG1       -5.8090    1.5280    4.2320 C.3    19  ILE19       0.0022
     22  CD1       -4.8420    0.7110    5.1680 C.3    19  ILE19       0.0001
     23  C         -5.3090    4.3680    1.6700 C.2    19  ILE19       0.2616
     24  O         -5.4600    5.5000    1.9990 O.2    19  ILE19      -0.2715
     25  N         -4.7040    4.0060    0.5820 N.am   20  ILE20      -0.1963
     26  CA        -4.0960    4.7790   -0.5960 C.3    20  ILE20       0.1727
     27  CB        -2.6020    4.7750   -0.4510 C.3    20  ILE20       0.0290
     28  CG2       -1.9250    5.5880   -1.5590 C.3    20  ILE20       0.0023
     29  CG1       -2.1130    5.4100    0.8700 C.3    20  ILE20       0.0022
     30  CD1       -0.6410    5.2720    1.1280 C.3    20  ILE20       0.0001
     31  C         -4.5320    4.1580   -1.9530 C.2    20  ILE20       0.2617
     32  O         -4.2450    2.9690   -2.1820 O.2    20  ILE20      -0.2715
     33  N         -5.3050    4.9000   -2.7470 N.am   21  TRP21      -0.1941
     34  CA        -5.5970    4.7530   -4.1770 C.3    21  TRP21       0.1982
     35  CB        -6.8980    3.9970   -4.4200 C.3    21  TRP21       0.0394
     36  CG        -7.0900    3.4860   -5.7850 C.3    21  TRP21       0.0475
     37  CD1       -7.8000    3.9920   -6.7820 C.3    21  TRP21       0.1166
     38  NE1       -7.7190    3.1220   -7.8250 N.pl3  21  TRP21      -0.2376
     39  CE2       -6.9230    2.0360   -7.5630 C.ar   21  TRP21       0.0614
     40  CZ2       -6.5610    0.9120   -8.3240 C.ar   21  TRP21       0.0158
     41  CH2       -5.7330   -0.0520   -7.5920 C.ar   21  TRP21       0.0013
     42  CZ3       -5.3240    0.1220   -6.2550 C.ar   21  TRP21      -0.0002
     43  CE3       -5.6720    1.3160   -5.6250 C.ar   21  TRP21      -0.0030
     44  CD2       -6.4830    2.2690   -6.2400 C.ar   21  TRP21      -0.0059
     45  C         -5.6610    6.1060   -4.8250 C.2    21  TRP21       0.3842
     46  O         -5.4320    6.2830   -6.0360 O.co2  21  TRP21      -0.2437
     47  OXT       -6.1550    7.0720   -4.2090 O.co2  21  TRP21      -0.2437
@<TRIPOS>BOND
     1    40    41   ar
     2    40    39   ar
     3    41    42   ar
     4    39    38    1
     5    39    44   ar
     6    42    43   ar
     7    38    37    1
     8    43    44   ar
     9    44    36    1
    10    37    36    1
    11    36    35    1
    12    47    45   ar
    13     5     4    1
    14    35    34    1
    15    45    34    1
    16    45    46   ar
    17    34    33    1
    18     8     7    2
    19     4     6    1
    20     4     3    1
    21     2     3    1
    22     2     1    1
    23     2     7    1
    24     7     9   am
    25    33    31   am
    26    32    31    2
    27    31    26    1
    28     9    10    1
    29    10    11    1
    30    10    15    1
    31    26    27    1
    32    26    25    1
    33    11    12    1
    34    13    12   ar
    35    27    29    1
    36    27    28    1
    37    29    30    1
    38    16    15    2
    39    15    17   am
    40    12    14   ar
    41    25    23   am
    42    17    18    1
    43    23    24    2
    44    23    18    1
    45    18    19    1
    46    19    21    1
    47    19    20    1
    48    21    22    1
