@<TRIPOS>MOLECULE
../ET1/ET1_17-21_50CONFORMERS_NOBACKBONE.pdb
 26 23 0 0 0
SMALL
GASTEIGER

@<TRIPOS>ATOM
      1  CB        -6.1150   -1.4830   -0.5580 C.3    17  LEU17       0.0000
      2  CG        -7.4710   -2.1900   -0.5490 C.3    17  LEU17       0.0000
      3  CD1       -7.5650   -3.1290   -1.8160 C.3    17  LEU17       0.0000
      4  CD2       -7.6340   -3.0650    0.7330 C.3    17  LEU17       0.0000
      5  CB        -9.5330    1.3370    0.3720 C.3    18  ASP18       0.1258
      6  CG       -10.8210    2.1240    0.3740 C.2    18  ASP18       0.3654
      7  OD1      -11.4060    2.2040   -0.7190 O.co2  18  ASP18      -0.2456
      8  OD2      -11.1770    2.7140    1.4220 O.co2  18  ASP18      -0.2456
      9  CB        -5.4130    4.6360    2.5530 C.3    19  ILE19       0.0000
     10  CG2       -4.5050    5.7520    2.8080 C.3    19  ILE19       0.0000
     11  CG1       -6.1410    4.2180    3.8750 C.3    19  ILE19       0.0000
     12  CD1       -5.2560    3.8010    5.0260 C.3    19  ILE19       0.0000
     13  CB        -2.5150    4.5890   -1.3610 C.3    20  ILE20       0.0000
     14  CG2       -1.7230    4.4030   -2.6660 C.3    20  ILE20       0.0000
     15  CG1       -1.9230    5.6330   -0.4200 C.3    20  ILE20       0.0000
     16  CD1       -0.4510    5.5540   -0.0730 C.3    20  ILE20       0.0000
     17  CB        -7.4330    4.0930   -4.5870 C.3    21  TRP21       0.0066
     18  CG        -8.2260    3.2200   -5.4930 C.3    21  TRP21       0.0452
     19  CD1       -9.3870    3.6160   -6.0840 C.3    21  TRP21       0.1165
     20  NE1       -9.8600    2.5750   -6.9160 N.pl3  21  TRP21      -0.2376
     21  CE2       -8.9610    1.5660   -6.9710 C.ar   21  TRP21       0.0614
     22  CZ2       -8.8830    0.4700   -7.8450 C.ar   21  TRP21       0.0158
     23  CH2       -7.7910   -0.4630   -7.6930 C.ar   21  TRP21       0.0013
     24  CZ3       -6.8610   -0.2860   -6.7140 C.ar   21  TRP21      -0.0002
     25  CE3       -6.8910    0.8700   -5.9240 C.ar   21  TRP21      -0.0030
     26  CD2       -7.9350    1.8700   -5.9810 C.ar   21  TRP21      -0.0059
@<TRIPOS>BOND
     1    22    23   ar
     2    22    21   ar
     3    23    24   ar
     4    21    20    1
     5    21    26   ar
     6    24    25   ar
     7    20    19    1
     8    25    26   ar
     9    26    18    1
    10    19    18    1
    11    18    17    1
    12     3     2    1
    13     2     4    1
    14     2     1    1
    15     5     6    1
    16     7     6   ar
    17    13    15    1
    18    13    14    1
    19    15    16    1
    20     6     8   ar
    21     9    11    1
    22     9    10    1
    23    11    12    1
@<TRIPOS>MOLECULE
16219006
 44 47 0 0 0
SMALL
GASTEIGER

@<TRIPOS>ATOM
      1 O          -6.9736    3.3123    2.7856 O.2     1  PRO11      -0.2738
      2 O          -3.2160    2.9926    0.9154 O.2     5  ASP55      -0.2735
      3 O          -4.2321   -0.3987    1.2624 O.2     2  VAL22      -0.2738
      4 O          -5.1947    4.8765   -2.9633 O.2     4  TRP44      -0.2738
      5 O          -7.2002    1.9008   -1.3129 O.2     3  LEU33      -0.2738
      6 OD1        -0.2668    5.2515    0.6657 O.co2   5  ASP55      -0.5497
      7 OD2        -1.6976    6.7328   -0.3111 O.co2   5  ASP55      -0.5497
      8 N          -4.5750    4.7994    1.0768 N.am    1  PRO11      -0.2884
      9 N          -5.0081    2.1394    2.7586 N.am    2  VAL22      -0.3022
     10 N          -3.7294    3.4745   -1.8770 N.am    5  ASP55      -0.3021
     11 N          -6.3625    0.1538    0.6296 N.am    3  LEU33      -0.3025
     12 N          -5.3456    1.3174   -2.5230 N.am    4  TRP44      -0.3022
     13 NE1        -5.2515   -0.8326   -6.5394 N.ar    4  TRP44      -0.3604
     14 CA         -4.8808    4.5676    2.4873 C.3     1  PRO11       0.1023
     15 CB         -5.5975    5.8453    2.9361 C.3     1  PRO11      -0.0243
     16 CG         -6.1920    6.3986    1.6467 C.3     1  PRO11      -0.0350
     17 CD         -5.1306    6.0595    0.6144 C.3     1  PRO11       0.0156
     18 C          -5.7480    3.3023    2.6927 C.2     1  PRO11       0.2342
     19 C          -3.6041    4.0671    0.4318 C.2     5  ASP55       0.2369
     20 CA         -5.6130    0.8165    2.8673 C.3     2  VAL22       0.1017
     21 CA         -3.1606    4.4999   -0.9869 C.3     5  ASP55       0.1047
     22 CB         -5.0322    0.0397    4.0695 C.3     2  VAL22      -0.0197
     23 CA         -6.1517   -0.2102   -0.7639 C.3     3  LEU33       0.0996
     24 C          -5.3181    0.1114    1.5302 C.2     2  VAL22       0.2342
     25 CB         -1.6449    4.5025   -1.0884 C.3     5  ASP55       0.0138
     26 CA         -5.4204    2.5083   -3.3766 C.3     4  TRP44       0.1034
     27 CB         -7.1989   -1.2067   -1.2828 C.3     3  LEU33      -0.0236
     28 CG         -6.9893   -2.6646   -0.8189 C.3     3  LEU33      -0.0446
     29 C          -4.8229    3.7402   -2.6756 C.2     4  TRP44       0.2343
     30 CB         -4.6849    2.3160   -4.7105 C.3     4  TRP44       0.0013
     31 C          -6.2887    1.1074   -1.5444 C.2     3  LEU33       0.2340
     32 CG1        -5.5549   -1.4013    4.1174 C.3     2  VAL22      -0.0605
     33 CG2        -5.3868    0.7375    5.3888 C.3     2  VAL22      -0.0605
     34 CG         -5.1779    1.1394   -5.5023 C.ar    4  TRP44      -0.0201
     35 CG         -1.1574    5.6037   -0.1561 C.2     5  ASP55       0.0440
     36 CD1        -7.2918   -2.8720    0.6653 C.3     3  LEU33      -0.0626
     37 CD2        -7.8779   -3.6013   -1.6441 C.3     3  LEU33      -0.0626
     38 CD2        -6.4794    0.9687   -6.0781 C.ar    4  TRP44       0.0029
     39 CD1        -4.4503    0.0073   -5.8153 C.ar    4  TRP44       0.0060
     40 CE2        -6.4973   -0.2766   -6.7071 C.ar    4  TRP44       0.0467
     41 CE3        -7.6492    1.7555   -6.1180 C.ar    4  TRP44      -0.0523
     42 CZ2        -7.6270   -0.7779   -7.3658 C.ar    4  TRP44      -0.0378
     43 CZ3        -8.7889    1.2680   -6.7679 C.ar    4  TRP44      -0.0611
     44 CH2        -8.7757    0.0184   -7.3811 C.ar    4  TRP44      -0.0598
@<TRIPOS>BOND
     1     1    18    2
     2     2    19    2
     3     3    24    2
     4     4    29    2
     5     5    31    2
     6     6    35   ar
     7     7    35   ar
     8     8    14    1
     9     8    17    1
    10     8    19   am
    11     9    18   am
    12     9    20    1
    13    10    21    1
    14    10    29   am
    15    11    23    1
    16    11    24   am
    17    12    26    1
    18    12    31   am
    19    13    39   ar
    20    13    40   ar
    21    14    15    1
    22    14    18    1
    23    15    16    1
    24    16    17    1
    25    19    21    1
    26    20    22    1
    27    20    24    1
    28    21    25    1
    29    22    32    1
    30    22    33    1
    31    23    27    1
    32    23    31    1
    33    25    35    1
    34    26    29    1
    35    26    30    1
    36    27    28    1
    37    28    36    1
    38    28    37    1
    39    30    34    1
    40    34    38   ar
    41    34    39   ar
    42    38    40   ar
    43    38    41   ar
    44    40    42   ar
    45    41    43   ar
    46    42    44   ar
    47    43    44   ar
@<TRIPOS>MOLECULE
../ET1/ET1_17-21_50CONFORMERS.pdb
 47 48 0 0 0
SMALL
GASTEIGER

@<TRIPOS>ATOM
      1  N         -4.5950    0.2540   -1.3750 N.3    17  LEU17      -0.1231
      2  CA        -5.8680   -0.4060   -1.6470 C.3    17  LEU17       0.1693
      3  CB        -6.1150   -1.4830   -0.5580 C.3    17  LEU17       0.0284
      4  CG        -7.4710   -2.1900   -0.5490 C.3    17  LEU17       0.0019
      5  CD1       -7.5650   -3.1290   -1.8160 C.3    17  LEU17       0.0001
      6  CD2       -7.6340   -3.0650    0.7330 C.3    17  LEU17       0.0001
      7  C         -6.9860    0.6360   -1.6690 C.2    17  LEU17       0.2592
      8  O         -7.6340    0.7430   -2.7370 O.2    17  LEU17      -0.2718
      9  N         -7.2970    1.3320   -0.5610 N.am   18  ASP18      -0.1960
     10  CA        -8.4790    2.2020   -0.3870 C.3    18  ASP18       0.1840
     11  CB        -9.5330    1.3370    0.3720 C.3    18  ASP18       0.1450
     12  CG       -10.8210    2.1240    0.3740 C.2    18  ASP18       0.3671
     13  OD1      -11.4060    2.2040   -0.7190 O.co2  18  ASP18      -0.2456
     14  OD2      -11.1770    2.7140    1.4220 O.co2  18  ASP18      -0.2456
     15  C         -8.0910    3.5840    0.1800 C.2    18  ASP18       0.2622
     16  O         -8.7800    4.5590   -0.1210 O.2    18  ASP18      -0.2715
     17  N         -7.0700    3.6540    1.0290 N.am   19  ILE19      -0.1963
     18  CA        -6.3960    4.9150    1.3660 C.3    19  ILE19       0.1727
     19  CB        -5.4130    4.6360    2.5530 C.3    19  ILE19       0.0290
     20  CG2       -4.5050    5.7520    2.8080 C.3    19  ILE19       0.0023
     21  CG1       -6.1410    4.2180    3.8750 C.3    19  ILE19       0.0022
     22  CD1       -5.2560    3.8010    5.0260 C.3    19  ILE19       0.0001
     23  C         -5.6610    5.3990    0.0870 C.2    19  ILE19       0.2616
     24  O         -5.9120    6.4560   -0.4040 O.2    19  ILE19      -0.2715
     25  N         -4.7450    4.5400   -0.4380 N.am   20  ILE20      -0.1963
     26  CA        -4.0060    4.7800   -1.6650 C.3    20  ILE20       0.1727
     27  CB        -2.5150    4.5890   -1.3610 C.3    20  ILE20       0.0290
     28  CG2       -1.7230    4.4030   -2.6660 C.3    20  ILE20       0.0023
     29  CG1       -1.9230    5.6330   -0.4200 C.3    20  ILE20       0.0022
     30  CD1       -0.4510    5.5540   -0.0730 C.3    20  ILE20       0.0001
     31  C         -4.6610    4.0040   -2.7590 C.2    20  ILE20       0.2617
     32  O         -4.6370    2.7640   -2.7060 O.2    20  ILE20      -0.2715
     33  N         -5.1840    4.7980   -3.7140 N.am   21  TRP21      -0.1941
     34  CA        -5.9280    4.3140   -4.9110 C.3    21  TRP21       0.1982
     35  CB        -7.4330    4.0930   -4.5870 C.3    21  TRP21       0.0394
     36  CG        -8.2260    3.2200   -5.4930 C.3    21  TRP21       0.0475
     37  CD1       -9.3870    3.6160   -6.0840 C.3    21  TRP21       0.1166
     38  NE1       -9.8600    2.5750   -6.9160 N.pl3  21  TRP21      -0.2376
     39  CE2       -8.9610    1.5660   -6.9710 C.ar   21  TRP21       0.0614
     40  CZ2       -8.8830    0.4700   -7.8450 C.ar   21  TRP21       0.0158
     41  CH2       -7.7910   -0.4630   -7.6930 C.ar   21  TRP21       0.0013
     42  CZ3       -6.8610   -0.2860   -6.7140 C.ar   21  TRP21      -0.0002
     43  CE3       -6.8910    0.8700   -5.9240 C.ar   21  TRP21      -0.0030
     44  CD2       -7.9350    1.8700   -5.9810 C.ar   21  TRP21      -0.0059
     45  C         -5.7590    5.3050   -6.0770 C.2    21  TRP21       0.3842
     46  O         -5.6460    4.8080   -7.2450 O.co2  21  TRP21      -0.2437
     47  OXT       -5.7750    6.5610   -5.9010 O.co2  21  TRP21      -0.2437
@<TRIPOS>BOND
     1    40    41   ar
     2    40    39   ar
     3    41    42   ar
     4    39    38    1
     5    39    44   ar
     6    42    43   ar
     7    38    37    1
     8    43    44   ar
     9    44    36    1
    10    37    36    1
    11    36    35    1
    12    47    45   ar
    13     5     4    1
    14    35    34    1
    15    45    34    1
    16    45    46   ar
    17    34    33    1
    18     8     7    2
    19     4     6    1
    20     4     3    1
    21     2     3    1
    22     2     1    1
    23     2     7    1
    24     7     9   am
    25    33    31   am
    26    32    31    2
    27    31    26    1
    28     9    10    1
    29    10    11    1
    30    10    15    1
    31    26    27    1
    32    26    25    1
    33    11    12    1
    34    13    12   ar
    35    27    29    1
    36    27    28    1
    37    29    30    1
    38    16    15    2
    39    15    17   am
    40    12    14   ar
    41    25    23   am
    42    17    18    1
    43    23    24    2
    44    23    18    1
    45    18    19    1
    46    19    21    1
    47    19    20    1
    48    21    22    1
