@<TRIPOS>MOLECULE
../ET1/ET1_17-21_50CONFORMERS_NOBACKBONE.pdb
 26 23 0 0 0
SMALL
GASTEIGER

@<TRIPOS>ATOM
      1  CB        -5.5600   -1.8760   -2.4960 C.3    17  LEU17       0.0000
      2  CG        -6.8600   -2.5850   -2.8960 C.3    17  LEU17       0.0000
      3  CD1       -7.1340   -2.5660   -4.3750 C.3    17  LEU17       0.0000
      4  CD2       -6.7590   -4.0120   -2.4400 C.3    17  LEU17       0.0000
      5  CB        -9.1330   -0.1140   -0.3870 C.3    18  ASP18       0.1258
      6  CG       -10.5190    0.2590    0.1090 C.2    18  ASP18       0.3654
      7  OD1      -10.6870    0.1950    1.3500 O.co2  18  ASP18      -0.2456
      8  OD2      -11.3630    0.6190   -0.7170 O.co2  18  ASP18      -0.2456
      9  CB        -6.2400    2.6510    3.3830 C.3    19  ILE19       0.0000
     10  CG2       -4.8340    2.1790    3.0100 C.3    19  ILE19       0.0000
     11  CG1       -6.1590    3.8270    4.4510 C.3    19  ILE19       0.0000
     12  CD1       -6.2900    3.2210    5.8430 C.3    19  ILE19       0.0000
     13  CB        -3.7050    5.8140    0.2540 C.3    20  ILE20       0.0000
     14  CG2       -4.0800    6.7630    1.4120 C.3    20  ILE20       0.0000
     15  CG1       -2.4080    5.0920    0.7870 C.3    20  ILE20       0.0000
     16  CD1       -1.5810    4.4340   -0.3390 C.3    20  ILE20       0.0000
     17  CB        -4.5040    4.7650   -4.9540 C.3    21  TRP21       0.0066
     18  CG        -4.1660    4.1700   -6.3060 C.3    21  TRP21       0.0452
     19  CD1       -3.6480    4.8090   -7.4240 C.3    21  TRP21       0.1165
     20  NE1       -3.6150    3.9660   -8.5310 N.pl3  21  TRP21      -0.2376
     21  CE2       -4.2200    2.7770   -8.1780 C.ar   21  TRP21       0.0614
     22  CZ2       -4.3080    1.5720   -8.8160 C.ar   21  TRP21       0.0158
     23  CH2       -5.0040    0.4940   -8.2370 C.ar   21  TRP21       0.0013
     24  CZ3       -5.4670    0.6240   -6.9110 C.ar   21  TRP21      -0.0002
     25  CE3       -5.3310    1.8220   -6.2160 C.ar   21  TRP21      -0.0030
     26  CD2       -4.6430    2.8870   -6.8160 C.ar   21  TRP21      -0.0059
@<TRIPOS>BOND
     1    22    23   ar
     2    22    21   ar
     3    23    24   ar
     4    21    20    1
     5    21    26   ar
     6    24    25   ar
     7    20    19    1
     8    25    26   ar
     9    26    18    1
    10    19    18    1
    11    18    17    1
    12     3     2    1
    13     2     4    1
    14     2     1    1
    15     5     6    1
    16     7     6   ar
    17    13    15    1
    18    13    14    1
    19    15    16    1
    20     6     8   ar
    21     9    11    1
    22     9    10    1
    23    11    12    1
@<TRIPOS>MOLECULE
156690
 38 41 0 0 0
SMALL
GASTEIGER

@<TRIPOS>ATOM
      1 S          -6.2237    2.9442   -3.3316 S.O2    1  LIG11       0.0741
      2 O          -7.3650   -3.7665   -5.9200 O.2     1  LIG11      -0.2756
      3 O          -6.0415    1.5752   -2.9153 O.2     1  LIG11      -0.1499
      4 O          -5.1757    3.6948   -3.9981 O.2     1  LIG11      -0.1499
      5 O          -3.1068   -1.1831   -8.4075 O.2     1  LIG11      -0.4436
      6 O          -6.7887    2.4066    1.1302 O.2     1  LIG11      -0.3578
      7 N          -7.6973   -1.6724   -6.7728 N.am    1  LIG11      -0.3002
      8 N          -6.5697    3.9496   -2.0091 N.pl3   1  LIG11      -0.1965
      9 N          -1.9003    0.7246   -8.4374 N.ar    1  LIG11      -0.2175
     10 N          -7.2799    2.6536   -0.1379 N.ar    1  LIG11      -0.0614
     11 C          -6.5670   -2.8473   -3.2580 C.3     1  LIG11      -0.0295
     12 C          -6.7279   -1.9219   -4.4892 C.3     1  LIG11       0.0290
     13 C          -6.0347   -1.9804   -2.0957 C.3     1  LIG11      -0.0596
     14 C          -7.9237   -3.4354   -2.8349 C.3     1  LIG11      -0.0596
     15 C          -5.5541   -3.9768   -3.5061 C.3     1  LIG11      -0.0596
     16 C          -7.3036   -2.5476   -5.7632 C.2     1  LIG11       0.2161
     17 C          -7.8509   -0.2268   -6.6010 C.3     1  LIG11       0.0400
     18 C          -6.5833    0.5994   -6.7656 C.ar    1  LIG11      -0.0216
     19 C          -6.5539    1.9690   -6.3816 C.ar    1  LIG11      -0.0113
     20 C          -7.6929    2.6224   -5.6937 C.ar    1  LIG11       0.0090
     21 C          -8.1829   -2.2309   -8.0277 C.3     1  LIG11       0.0035
     22 C          -5.4383    0.0309   -7.3705 C.ar    1  LIG11      -0.0442
     23 C          -7.6977    3.0163   -4.3341 C.ar    1  LIG11       0.1162
     24 C          -5.4102    2.7188   -6.7001 C.ar    1  LIG11      -0.0529
     25 C          -4.2710    0.7716   -7.5984 C.ar    1  LIG11       0.0372
     26 C          -4.2807    2.1288   -7.2745 C.ar    1  LIG11      -0.0489
     27 C          -8.8889    2.8063   -6.4229 C.ar    1  LIG11      -0.0521
     28 C          -8.8812    3.4828   -3.7277 C.ar    1  LIG11      -0.0345
     29 C         -10.0544    3.2806   -5.8181 C.ar    1  LIG11      -0.0611
     30 C          -3.0637    0.1652   -8.1544 C.ar    1  LIG11       0.2271
     31 C         -10.0547    3.6027   -4.4672 C.ar    1  LIG11      -0.0599
     32 C          -6.3704    3.4279   -0.7321 C.ar    1  LIG11       0.1837
     33 C          -5.2867    3.7319    0.1329 C.ar    1  LIG11       0.0342
     34 C          -5.6046    3.0533    1.2911 C.ar    1  LIG11       0.1390
     35 C          -4.0815    4.5531   -0.1194 C.3     1  LIG11      -0.0330
     36 C          -1.8629   -1.4773   -8.8751 C.ar    1  LIG11       0.1125
     37 C          -1.1323   -0.3176   -8.8914 C.ar    1  LIG11       0.0663
     38 C          -4.9425    2.9024    2.6011 C.3     1  LIG11      -0.0034
@<TRIPOS>BOND
     1     1     3    2
     2     1     4    2
     3     1     8    1
     4     1    23    1
     5     2    16    2
     6     5    30   ar
     7     5    36   ar
     8     6    10   ar
     9     6    34   ar
    10     7    16   am
    11     7    17    1
    12     7    21    1
    13     8    32    1
    14     9    30   ar
    15     9    37   ar
    16    10    32   ar
    17    11    12    1
    18    11    13    1
    19    11    14    1
    20    11    15    1
    21    12    16    1
    22    17    18    1
    23    18    19   ar
    24    18    22   ar
    25    19    20    1
    26    19    24   ar
    27    20    23   ar
    28    20    27   ar
    29    22    25   ar
    30    23    28   ar
    31    24    26   ar
    32    25    26   ar
    33    25    30    1
    34    27    29   ar
    35    28    31   ar
    36    29    31   ar
    37    32    33   ar
    38    33    34   ar
    39    33    35    1
    40    34    38    1
    41    36    37   ar
@<TRIPOS>MOLECULE
../ET1/ET1_17-21_50CONFORMERS.pdb
 47 48 0 0 0
SMALL
GASTEIGER

@<TRIPOS>ATOM
      1  N         -4.1620    0.1770   -2.2540 N.3    17  LEU17      -0.1231
      2  CA        -5.3890   -0.3930   -2.7840 C.3    17  LEU17       0.1693
      3  CB        -5.5600   -1.8760   -2.4960 C.3    17  LEU17       0.0284
      4  CG        -6.8600   -2.5850   -2.8960 C.3    17  LEU17       0.0019
      5  CD1       -7.1340   -2.5660   -4.3750 C.3    17  LEU17       0.0001
      6  CD2       -6.7590   -4.0120   -2.4400 C.3    17  LEU17       0.0001
      7  C         -6.6340    0.5790   -2.5340 C.2    17  LEU17       0.2592
      8  O         -7.2520    0.9240   -3.5380 O.2    17  LEU17      -0.2718
      9  N         -7.0610    0.7170   -1.3030 N.am   18  ASP18      -0.1960
     10  CA        -8.3850    1.1220   -0.9340 C.3    18  ASP18       0.1840
     11  CB        -9.1330   -0.1140   -0.3870 C.3    18  ASP18       0.1450
     12  CG       -10.5190    0.2590    0.1090 C.2    18  ASP18       0.3671
     13  OD1      -10.6870    0.1950    1.3500 O.co2  18  ASP18      -0.2456
     14  OD2      -11.3630    0.6190   -0.7170 O.co2  18  ASP18      -0.2456
     15  C         -8.1950    2.3170    0.0710 C.2    18  ASP18       0.2622
     16  O         -8.8070    3.3530   -0.1690 O.2    18  ASP18      -0.2715
     17  N         -7.4680    2.0920    1.1690 N.am   19  ILE19      -0.1963
     18  CA        -7.1440    3.1470    2.1900 C.3    19  ILE19       0.1727
     19  CB        -6.2400    2.6510    3.3830 C.3    19  ILE19       0.0290
     20  CG2       -4.8340    2.1790    3.0100 C.3    19  ILE19       0.0023
     21  CG1       -6.1590    3.8270    4.4510 C.3    19  ILE19       0.0022
     22  CD1       -6.2900    3.2210    5.8430 C.3    19  ILE19       0.0001
     23  C         -6.5590    4.2680    1.3570 C.2    19  ILE19       0.2616
     24  O         -7.1230    5.3880    1.3430 O.2    19  ILE19      -0.2715
     25  N         -5.4440    4.0380    0.5930 N.am   20  ILE20      -0.1963
     26  CA        -4.8730    4.9550   -0.3770 C.3    20  ILE20       0.1727
     27  CB        -3.7050    5.8140    0.2540 C.3    20  ILE20       0.0290
     28  CG2       -4.0800    6.7630    1.4120 C.3    20  ILE20       0.0023
     29  CG1       -2.4080    5.0920    0.7870 C.3    20  ILE20       0.0022
     30  CD1       -1.5810    4.4340   -0.3390 C.3    20  ILE20       0.0001
     31  C         -4.5500    4.2860   -1.6860 C.2    20  ILE20       0.2617
     32  O         -4.6770    3.1090   -1.8670 O.2    20  ILE20      -0.2715
     33  N         -4.0000    5.0300   -2.6580 N.am   21  TRP21      -0.1941
     34  CA        -3.4560    4.6010   -3.9210 C.3    21  TRP21       0.1982
     35  CB        -4.5040    4.7650   -4.9540 C.3    21  TRP21       0.0394
     36  CG        -4.1660    4.1700   -6.3060 C.3    21  TRP21       0.0475
     37  CD1       -3.6480    4.8090   -7.4240 C.3    21  TRP21       0.1166
     38  NE1       -3.6150    3.9660   -8.5310 N.pl3  21  TRP21      -0.2376
     39  CE2       -4.2200    2.7770   -8.1780 C.ar   21  TRP21       0.0614
     40  CZ2       -4.3080    1.5720   -8.8160 C.ar   21  TRP21       0.0158
     41  CH2       -5.0040    0.4940   -8.2370 C.ar   21  TRP21       0.0013
     42  CZ3       -5.4670    0.6240   -6.9110 C.ar   21  TRP21      -0.0002
     43  CE3       -5.3310    1.8220   -6.2160 C.ar   21  TRP21      -0.0030
     44  CD2       -4.6430    2.8870   -6.8160 C.ar   21  TRP21      -0.0059
     45  C         -2.1620    5.4310   -4.2590 C.2    21  TRP21       0.3842
     46  O         -2.1260    6.6300   -4.0970 O.co2  21  TRP21      -0.2437
     47  OXT       -1.2210    4.8480   -4.8090 O.co2  21  TRP21      -0.2437
@<TRIPOS>BOND
     1    40    41   ar
     2    40    39   ar
     3    41    42   ar
     4    39    38    1
     5    39    44   ar
     6    42    43   ar
     7    38    37    1
     8    43    44   ar
     9    44    36    1
    10    37    36    1
    11    36    35    1
    12    47    45   ar
    13     5     4    1
    14    35    34    1
    15    45    34    1
    16    45    46   ar
    17    34    33    1
    18     8     7    2
    19     4     6    1
    20     4     3    1
    21     2     3    1
    22     2     1    1
    23     2     7    1
    24     7     9   am
    25    33    31   am
    26    32    31    2
    27    31    26    1
    28     9    10    1
    29    10    11    1
    30    10    15    1
    31    26    27    1
    32    26    25    1
    33    11    12    1
    34    13    12   ar
    35    27    29    1
    36    27    28    1
    37    29    30    1
    38    16    15    2
    39    15    17   am
    40    12    14   ar
    41    25    23   am
    42    17    18    1
    43    23    24    2
    44    23    18    1
    45    18    19    1
    46    19    21    1
    47    19    20    1
    48    21    22    1
