@<TRIPOS>MOLECULE
../ET1/ET1_17-21_50CONFORMERS_NOBACKBONE.pdb
 26 23 0 0 0
SMALL
GASTEIGER

@<TRIPOS>ATOM
      1  CB        -6.1790   -1.2220   -0.4480 C.3    17  LEU17       0.0000
      2  CG        -7.2710   -2.2600   -0.6260 C.3    17  LEU17       0.0000
      3  CD1       -7.0390   -3.3820   -1.7660 C.3    17  LEU17       0.0000
      4  CD2       -7.5630   -2.8400    0.7060 C.3    17  LEU17       0.0000
      5  CB        -9.2830    1.6460   -1.8020 C.3    18  ASP18       0.1258
      6  CG       -10.5370    2.4520   -2.2150 C.2    18  ASP18       0.3654
      7  OD1      -11.1140    2.0050   -3.2510 O.co2  18  ASP18      -0.2456
      8  OD2      -10.9560    3.4170   -1.5210 O.co2  18  ASP18      -0.2456
      9  CB        -7.4840    5.3020    1.2320 C.3    19  ILE19       0.0000
     10  CG2       -6.9460    6.6770    1.8040 C.3    19  ILE19       0.0000
     11  CG1       -8.9970    5.0190    1.4390 C.3    19  ILE19       0.0000
     12  CD1       -9.6510    5.0260    2.8000 C.3    19  ILE19       0.0000
     13  CB        -2.1940    4.4390   -0.1210 C.3    20  ILE20       0.0000
     14  CG2       -0.8360    4.4230   -0.8410 C.3    20  ILE20       0.0000
     15  CG1       -2.0260    5.1680    1.2250 C.3    20  ILE20       0.0000
     16  CD1       -3.0830    4.8000    2.2720 C.3    20  ILE20       0.0000
     17  CB        -4.9890    4.5460   -5.3170 C.3    21  TRP21       0.0066
     18  CG        -5.3170    4.0380   -6.7550 C.3    21  TRP21       0.0452
     19  CD1       -5.2500    4.7270   -7.9210 C.3    21  TRP21       0.1165
     20  NE1       -5.5580    3.8940   -8.9880 N.pl3  21  TRP21      -0.2376
     21  CE2       -5.8900    2.6280   -8.5770 C.ar   21  TRP21       0.0614
     22  CZ2       -6.3820    1.5100   -9.2020 C.ar   21  TRP21       0.0158
     23  CH2       -6.8100    0.4000   -8.5950 C.ar   21  TRP21       0.0013
     24  CZ3       -6.8190    0.4660   -7.1640 C.ar   21  TRP21      -0.0002
     25  CE3       -6.3210    1.6010   -6.4690 C.ar   21  TRP21      -0.0030
     26  CD2       -5.8180    2.6990   -7.1070 C.ar   21  TRP21      -0.0059
@<TRIPOS>BOND
     1    22    23   ar
     2    22    21   ar
     3    23    24   ar
     4    21    20    1
     5    21    26   ar
     6    24    25   ar
     7    20    19    1
     8    25    26   ar
     9    26    18    1
    10    19    18    1
    11    18    17    1
    12     3     2    1
    13     2     4    1
    14     2     1    1
    15     5     6    1
    16     7     6   ar
    17    13    15    1
    18    13    14    1
    19    15    16    1
    20     6     8   ar
    21     9    11    1
    22     9    10    1
    23    11    12    1
@<TRIPOS>MOLECULE
9912992
 34 37 0 0 0
SMALL
GASTEIGER

@<TRIPOS>ATOM
      1 S          -2.9097   -0.8186   -7.0144 S.O2    1  LIG11       0.0908
      2 O          -6.3239   -0.6212   -5.4594 O.3     1  LIG11      -0.4435
      3 O          -6.7494   -1.4329   -2.9681 O.3     1  LIG11      -0.4771
      4 O          -2.2120   -0.2063   -8.1276 O.2     1  LIG11      -0.1484
      5 O          -3.9855   -1.7626   -7.2341 O.2     1  LIG11      -0.1484
      6 O          -7.0826   -1.6259   -8.0927 O.3     1  LIG11      -0.4914
      7 N          -3.4732    0.4366   -6.0225 N.pl3   1  LIG11      -0.1950
      8 N          -3.1279    0.2441   -3.8057 N.ar    1  LIG11      -0.2073
      9 N          -4.6293   -0.7209   -2.2557 N.ar    1  LIG11      -0.1899
     10 N          -0.7759   -0.8372   -5.4207 N.ar    1  LIG11      -0.2351
     11 N          -0.5731    0.5113    0.5453 N.ar    1  LIG11      -0.2632
     12 C          -4.0335    0.0452   -4.7757 C.ar    1  LIG11       0.1882
     13 C          -5.3012   -0.4627   -4.5664 C.ar    1  LIG11       0.2307
     14 C          -1.6936   -1.6577   -6.0017 C.ar    1  LIG11       0.1969
     15 C          -5.5212   -0.8608   -3.2590 C.ar    1  LIG11       0.2638
     16 C          -3.4600   -0.1480   -2.5680 C.ar    1  LIG11       0.1659
     17 C          -1.8313   -3.0144   -5.7504 C.ar    1  LIG11      -0.0160
     18 C          -2.4737    0.0717   -1.5000 C.ar    1  LIG11       0.0222
     19 C          -6.4456    0.2163   -6.5423 C.ar    1  LIG11       0.1702
     20 C          -0.0165   -2.7819   -4.1833 C.ar    1  LIG11      -0.0322
     21 C          -0.9708   -3.5815   -4.8197 C.ar    1  LIG11      -0.0541
     22 C           0.0473   -1.4332   -4.5317 C.ar    1  LIG11       0.0327
     23 C          -6.7650   -0.3266   -7.7954 C.ar    1  LIG11       0.1621
     24 C          -6.2600    1.6017   -6.4117 C.ar    1  LIG11      -0.0157
     25 C           0.8905   -3.3395   -3.1316 C.3     1  LIG11      -0.0383
     26 C          -2.7275   -0.3020   -0.1730 C.ar    1  LIG11      -0.0329
     27 C          -1.2351    0.6794   -1.7636 C.ar    1  LIG11      -0.0329
     28 C          -6.7130    0.5013   -8.9225 C.ar    1  LIG11      -0.0163
     29 C          -6.2247    2.4163   -7.5428 C.ar    1  LIG11      -0.0581
     30 C          -6.4238    1.8615   -8.8013 C.ar    1  LIG11      -0.0581
     31 C          -1.7657   -0.0643    0.7969 C.ar    1  LIG11       0.0282
     32 C          -0.3344    0.8741   -0.7297 C.ar    1  LIG11       0.0282
     33 C          -6.8971   -1.8128   -1.6021 C.3     1  LIG11       0.0805
     34 C          -7.6348   -2.4194   -7.0510 C.3     1  LIG11       0.0790
@<TRIPOS>BOND
     1     1     4    2
     2     1     5    2
     3     1     7    1
     4     1    14    1
     5     2    13    1
     6     2    19    1
     7     3    15    1
     8     3    33    1
     9     6    23    1
    10     6    34    1
    11     7    12    1
    12     8    12   ar
    13     8    16   ar
    14     9    15   ar
    15     9    16   ar
    16    10    14   ar
    17    10    22   ar
    18    11    31   ar
    19    11    32   ar
    20    12    13   ar
    21    13    15   ar
    22    14    17   ar
    23    16    18    1
    24    17    21   ar
    25    18    26   ar
    26    18    27   ar
    27    19    23   ar
    28    19    24   ar
    29    20    21   ar
    30    20    22   ar
    31    20    25    1
    32    23    28   ar
    33    24    29   ar
    34    26    31   ar
    35    27    32   ar
    36    28    30   ar
    37    29    30   ar
@<TRIPOS>MOLECULE
../ET1/ET1_17-21_50CONFORMERS.pdb
 47 48 0 0 0
SMALL
GASTEIGER

@<TRIPOS>ATOM
      1  N         -4.4410    0.2010   -1.3300 N.3    17  LEU17      -0.1231
      2  CA        -5.5650   -0.6370   -1.7110 C.3    17  LEU17       0.1693
      3  CB        -6.1790   -1.2220   -0.4480 C.3    17  LEU17       0.0284
      4  CG        -7.2710   -2.2600   -0.6260 C.3    17  LEU17       0.0019
      5  CD1       -7.0390   -3.3820   -1.7660 C.3    17  LEU17       0.0001
      6  CD2       -7.5630   -2.8400    0.7060 C.3    17  LEU17       0.0001
      7  C         -6.4970    0.2350   -2.5900 C.2    17  LEU17       0.2592
      8  O         -6.8530   -0.0600   -3.7650 O.2    17  LEU17      -0.2718
      9  N         -6.9540    1.3410   -2.0600 N.am   18  ASP18      -0.1960
     10  CA        -8.0640    2.1930   -2.4620 C.3    18  ASP18       0.1840
     11  CB        -9.2830    1.6460   -1.8020 C.3    18  ASP18       0.1450
     12  CG       -10.5370    2.4520   -2.2150 C.2    18  ASP18       0.3671
     13  OD1      -11.1140    2.0050   -3.2510 O.co2  18  ASP18      -0.2456
     14  OD2      -10.9560    3.4170   -1.5210 O.co2  18  ASP18      -0.2456
     15  C         -7.9070    3.6610   -2.1470 C.2    18  ASP18       0.2622
     16  O         -8.2070    4.6000   -2.9010 O.2    18  ASP18      -0.2715
     17  N         -7.5000    3.8940   -0.8870 N.am   19  ILE19      -0.1963
     18  CA        -7.1370    5.2190   -0.2970 C.3    19  ILE19       0.1727
     19  CB        -7.4840    5.3020    1.2320 C.3    19  ILE19       0.0290
     20  CG2       -6.9460    6.6770    1.8040 C.3    19  ILE19       0.0023
     21  CG1       -8.9970    5.0190    1.4390 C.3    19  ILE19       0.0022
     22  CD1       -9.6510    5.0260    2.8000 C.3    19  ILE19       0.0001
     23  C         -5.7050    5.6160   -0.7450 C.2    19  ILE19       0.2616
     24  O         -5.5450    6.6670   -1.4030 O.2    19  ILE19      -0.2715
     25  N         -4.6630    4.8680   -0.3900 N.am   20  ILE20      -0.1963
     26  CA        -3.3280    4.9590   -1.0090 C.3    20  ILE20       0.1727
     27  CB        -2.1940    4.4390   -0.1210 C.3    20  ILE20       0.0290
     28  CG2       -0.8360    4.4230   -0.8410 C.3    20  ILE20       0.0023
     29  CG1       -2.0260    5.1680    1.2250 C.3    20  ILE20       0.0022
     30  CD1       -3.0830    4.8000    2.2720 C.3    20  ILE20       0.0001
     31  C         -3.4160    4.2400   -2.3320 C.2    20  ILE20       0.2617
     32  O         -3.5130    3.0230   -2.3730 O.2    20  ILE20      -0.2715
     33  N         -3.2910    4.9330   -3.5120 N.am   21  TRP21      -0.1941
     34  CA        -3.5400    4.5000   -4.9110 C.3    21  TRP21       0.1982
     35  CB        -4.9890    4.5460   -5.3170 C.3    21  TRP21       0.0394
     36  CG        -5.3170    4.0380   -6.7550 C.3    21  TRP21       0.0475
     37  CD1       -5.2500    4.7270   -7.9210 C.3    21  TRP21       0.1166
     38  NE1       -5.5580    3.8940   -8.9880 N.pl3  21  TRP21      -0.2376
     39  CE2       -5.8900    2.6280   -8.5770 C.ar   21  TRP21       0.0614
     40  CZ2       -6.3820    1.5100   -9.2020 C.ar   21  TRP21       0.0158
     41  CH2       -6.8100    0.4000   -8.5950 C.ar   21  TRP21       0.0013
     42  CZ3       -6.8190    0.4660   -7.1640 C.ar   21  TRP21      -0.0002
     43  CE3       -6.3210    1.6010   -6.4690 C.ar   21  TRP21      -0.0030
     44  CD2       -5.8180    2.6990   -7.1070 C.ar   21  TRP21      -0.0059
     45  C         -2.6350    5.2710   -5.8620 C.2    21  TRP21       0.3842
     46  O         -2.0630    4.6330   -6.7090 O.co2  21  TRP21      -0.2437
     47  OXT       -2.4590    6.4990   -5.7050 O.co2  21  TRP21      -0.2437
@<TRIPOS>BOND
     1    40    41   ar
     2    40    39   ar
     3    41    42   ar
     4    39    38    1
     5    39    44   ar
     6    42    43   ar
     7    38    37    1
     8    43    44   ar
     9    44    36    1
    10    37    36    1
    11    36    35    1
    12    47    45   ar
    13     5     4    1
    14    35    34    1
    15    45    34    1
    16    45    46   ar
    17    34    33    1
    18     8     7    2
    19     4     6    1
    20     4     3    1
    21     2     3    1
    22     2     1    1
    23     2     7    1
    24     7     9   am
    25    33    31   am
    26    32    31    2
    27    31    26    1
    28     9    10    1
    29    10    11    1
    30    10    15    1
    31    26    27    1
    32    26    25    1
    33    11    12    1
    34    13    12   ar
    35    27    29    1
    36    27    28    1
    37    29    30    1
    38    16    15    2
    39    15    17   am
    40    12    14   ar
    41    25    23   am
    42    17    18    1
    43    23    24    2
    44    23    18    1
    45    18    19    1
    46    19    21    1
    47    19    20    1
    48    21    22    1
