@<TRIPOS>MOLECULE
../ET1/ET1_17-21_50CONFORMERS_NOBACKBONE.pdb
 26 23 0 0 0
SMALL
GASTEIGER

@<TRIPOS>ATOM
      1  CB        -6.0320   -1.7260   -1.1030 C.3    17  LEU17       0.0000
      2  CG        -7.0780   -2.6010   -1.6650 C.3    17  LEU17       0.0000
      3  CD1       -6.7850   -3.1800   -3.0690 C.3    17  LEU17       0.0000
      4  CD2       -7.3480   -3.7290   -0.7320 C.3    17  LEU17       0.0000
      5  CB        -8.8130    1.1140    1.2660 C.3    18  ASP18       0.1258
      6  CG       -10.2300    1.4980    1.6400 C.2    18  ASP18       0.3654
      7  OD1      -10.4900    2.2680    2.5970 O.co2  18  ASP18      -0.2456
      8  OD2      -11.1770    1.1770    0.8180 O.co2  18  ASP18      -0.2456
      9  CB        -4.8870    4.3750    2.7780 C.3    19  ILE19       0.0000
     10  CG2       -4.4050    5.6090    3.4770 C.3    19  ILE19       0.0000
     11  CG1       -5.2510    3.2630    3.8230 C.3    19  ILE19       0.0000
     12  CD1       -6.5040    3.5010    4.6160 C.3    19  ILE19       0.0000
     13  CB        -3.0410    5.9480   -1.7710 C.3    20  ILE20       0.0000
     14  CG2       -2.9160    7.1040   -0.8250 C.3    20  ILE20       0.0000
     15  CG1       -1.9950    4.8170   -1.4230 C.3    20  ILE20       0.0000
     16  CD1       -0.5500    5.1390   -1.9550 C.3    20  ILE20       0.0000
     17  CB        -7.9200    4.1250   -3.7570 C.3    21  TRP21       0.0066
     18  CG        -8.4250    5.4530   -3.3620 C.3    21  TRP21       0.0452
     19  CD1       -8.1190    6.0680   -2.2450 C.3    21  TRP21       0.1165
     20  NE1       -8.7560    7.2690   -2.1720 N.pl3  21  TRP21      -0.2376
     21  CE2       -9.5810    7.4730   -3.2750 C.ar   21  TRP21       0.0614
     22  CZ2      -10.4220    8.4750   -3.7020 C.ar   21  TRP21       0.0158
     23  CH2      -11.1680    8.3670   -4.9280 C.ar   21  TRP21       0.0013
     24  CZ3      -11.0860    7.1640   -5.6280 C.ar   21  TRP21      -0.0002
     25  CE3      -10.1730    6.1170   -5.2330 C.ar   21  TRP21      -0.0030
     26  CD2       -9.4090    6.2620   -4.0570 C.ar   21  TRP21      -0.0059
@<TRIPOS>BOND
     1    22    23   ar
     2    22    21   ar
     3    23    24   ar
     4    21    20    1
     5    21    26   ar
     6    24    25   ar
     7    20    19    1
     8    25    26   ar
     9    26    18    1
    10    19    18    1
    11    18    17    1
    12     3     2    1
    13     2     4    1
    14     2     1    1
    15     5     6    1
    16     7     6   ar
    17    13    15    1
    18    13    14    1
    19    15    16    1
    20     6     8   ar
    21     9    11    1
    22     9    10    1
    23    11    12    1
@<TRIPOS>MOLECULE
23693553
 46 48 0 0 0
SMALL
GASTEIGER

@<TRIPOS>ATOM
      1 O          -8.1414    1.4777    1.9297 O.2     1  LIG11      -0.2526
      2 O          -4.7612    1.5409   -1.7432 O.2     1  LIG11      -0.2731
      3 O          -8.6520    2.6470   -1.0326 O.2     1  LIG11      -0.2689
      4 O          -4.2348    3.0178   -4.8186 O.co2   1  LIG11      -0.5479
      5 OXT        -6.2459    1.9145   -4.6675 O.co2   1  LIG11      -0.5479
      6 O          -9.7397   10.3081   -1.6454 O.3     1  LIG11      -0.4515
      7 O         -11.2455   10.8087   -3.3316 O.2     1  LIG11      -0.2227
      8 N          -6.4206    2.6718    2.8954 N.am    1  LIG11      -0.2801
      9 N          -6.1874    1.6541    0.8016 N.am    1  LIG11      -0.2879
     10 N          -6.6063    2.9049   -2.0702 N.am    1  LIG11      -0.2273
     11 N          -8.6632    5.3965   -0.8630 N.3     1  LIG11       0.2276
     12 N         -10.0873    8.8085   -3.3159 N.ar    1  LIG11      -0.2526
     13 C          -5.0736    3.2827    2.8146 C.3     1  LIG11       0.0249
     14 C          -7.3024    2.9719    4.0437 C.3     1  LIG11       0.0249
     15 C          -4.4607    3.7058    4.1596 C.3     1  LIG11      -0.0344
     16 C          -6.5838    3.4093    5.3295 C.3     1  LIG11      -0.0344
     17 C          -5.1200    3.0151    5.3373 C.3     1  LIG11      -0.0497
     18 CA         -6.6337    0.9281   -0.4031 C.3     1  LIG11       0.1019
     19 C          -6.6679   -1.5361   -1.3776 C.3     1  LIG11      -0.0356
     20 C          -6.1261   -0.5296   -0.3204 C.3     1  LIG11      -0.0210
     21 C          -6.9828    1.8811    1.8847 C.2     1  LIG11       0.3033
     22 C          -5.0626    4.4677    1.8434 C.3     1  LIG11      -0.0464
     23 C          -8.3732    4.0077    3.6730 C.3     1  LIG11      -0.0464
     24 C          -5.9603    1.7615   -1.5189 C.2     1  LIG11       0.2429
     25 C          -6.1952   -1.1875   -2.7959 C.3     1  LIG11      -0.0600
     26 C          -8.2046   -1.5984   -1.3647 C.3     1  LIG11      -0.0600
     27 C          -6.1240   -2.9358   -1.0221 C.3     1  LIG11      -0.0600
     28 CA         -5.7772    3.5954   -3.0949 C.3     1  LIG11       0.0730
     29 C          -4.8810    4.7064   -2.5238 C.3     1  LIG11      -0.0286
     30 C          -7.9195    3.2687   -1.8198 C.2     1  LIG11       0.2708
     31 CA         -8.5765    4.6401   -2.1865 C.3     1  LIG11       0.0579
     32 C          -3.5983    4.2877   -1.8108 C.3     1  LIG11      -0.0513
     33 C          -8.1735    5.6000   -3.3060 C.3     1  LIG11       0.0261
     34 C          -5.3326    2.7102   -4.2885 C.2     1  LIG11       0.0626
     35 C          -9.1083    6.7659   -3.5064 C.ar    1  LIG11      -0.0158
     36 C          -2.8384    5.4857   -1.2252 C.3     1  LIG11      -0.0558
     37 C         -10.0782    6.9075   -4.5448 C.ar    1  LIG11       0.0038
     38 C          -9.1232    7.9472   -2.7947 C.ar    1  LIG11       0.0202
     39 C         -10.6547    8.1787   -4.4253 C.ar    1  LIG11       0.0598
     40 C          -2.3638    6.4906   -2.2638 C.3     1  LIG11      -0.0653
     41 C         -10.4883    6.0700   -5.6060 C.ar    1  LIG11      -0.0523
     42 C         -11.6255    8.6273   -5.3425 C.ar    1  LIG11      -0.0371
     43 C         -11.4490    6.5171   -6.5173 C.ar    1  LIG11      -0.0611
     44 C         -10.4225   10.0811   -2.8007 C.2     1  LIG11       0.4196
     45 C         -12.0072    7.7811   -6.3865 C.ar    1  LIG11      -0.0598
     46 C         -10.0594   11.5551   -1.0247 C.3     1  LIG11       0.0835
@<TRIPOS>BOND
     1     1    21    2
     2     2    24    2
     3     3    30    2
     4     4    34   ar
     5     5    34   ar
     6     6    44    1
     7     6    46    1
     8     7    44    2
     9     8    13    1
    10     8    14    1
    11     9    21   am
    12    10    24   am
    13    10    30   am
    14    12    39   ar
    15    12    38   ar
    16    12    44   am
    17    13    15    1
    18    13    22    1
    19    14    16    1
    20    14    23    1
    21    15    17    1
    22    16    17    1
    23    18     9    1
    24    18    24    1
    25    18    20    1
    26    19    20    1
    27    19    27    1
    28    19    26    1
    29    19    25    1
    30    21     8   am
    31    28    34    1
    32    28    29    1
    33    28    10    1
    34    29    32    1
    35    31    33    1
    36    31    11    1
    37    31    30    1
    38    32    36    1
    39    33    35    1
    40    35    38   ar
    41    35    37   ar
    42    36    40    1
    43    37    39   ar
    44    37    41   ar
    45    39    42   ar
    46    41    43   ar
    47    42    45   ar
    48    43    45   ar
@<TRIPOS>MOLECULE
../ET1/ET1_17-21_50CONFORMERS.pdb
 47 48 0 0 0
SMALL
GASTEIGER

@<TRIPOS>ATOM
      1  N         -4.5390    0.2280   -1.6100 N.3    17  LEU17      -0.1231
      2  CA        -5.8680   -0.3980   -1.8940 C.3    17  LEU17       0.1693
      3  CB        -6.0320   -1.7260   -1.1030 C.3    17  LEU17       0.0284
      4  CG        -7.0780   -2.6010   -1.6650 C.3    17  LEU17       0.0019
      5  CD1       -6.7850   -3.1800   -3.0690 C.3    17  LEU17       0.0001
      6  CD2       -7.3480   -3.7290   -0.7320 C.3    17  LEU17       0.0001
      7  C         -7.1270    0.4540   -1.5890 C.2    17  LEU17       0.2592
      8  O         -8.1120    0.2970   -2.2000 O.2    17  LEU17      -0.2718
      9  N         -7.0630    1.2010   -0.5010 N.am   18  ASP18      -0.1960
     10  CA        -8.2440    1.9290    0.0850 C.3    18  ASP18       0.1840
     11  CB        -8.8130    1.1140    1.2660 C.3    18  ASP18       0.1450
     12  CG       -10.2300    1.4980    1.6400 C.2    18  ASP18       0.3671
     13  OD1      -10.4900    2.2680    2.5970 O.co2  18  ASP18      -0.2456
     14  OD2      -11.1770    1.1770    0.8180 O.co2  18  ASP18      -0.2456
     15  C         -7.8330    3.3550    0.6240 C.2    18  ASP18       0.2622
     16  O         -8.5870    4.3920    0.4550 O.2    18  ASP18      -0.2715
     17  N         -6.6540    3.4520    1.3220 N.am   19  ILE19      -0.1963
     18  CA        -6.0210    4.6750    1.7890 C.3    19  ILE19       0.1727
     19  CB        -4.8870    4.3750    2.7780 C.3    19  ILE19       0.0290
     20  CG2       -4.4050    5.6090    3.4770 C.3    19  ILE19       0.0023
     21  CG1       -5.2510    3.2630    3.8230 C.3    19  ILE19       0.0022
     22  CD1       -6.5040    3.5010    4.6160 C.3    19  ILE19       0.0001
     23  C         -5.5350    5.5070    0.5840 C.2    19  ILE19       0.2616
     24  O         -5.9050    6.6660    0.4660 O.2    19  ILE19      -0.2715
     25  N         -4.7320    4.9080   -0.3300 N.am   20  ILE20      -0.1963
     26  CA        -4.4970    5.4200   -1.7260 C.3    20  ILE20       0.1727
     27  CB        -3.0410    5.9480   -1.7710 C.3    20  ILE20       0.0290
     28  CG2       -2.9160    7.1040   -0.8250 C.3    20  ILE20       0.0023
     29  CG1       -1.9950    4.8170   -1.4230 C.3    20  ILE20       0.0022
     30  CD1       -0.5500    5.1390   -1.9550 C.3    20  ILE20       0.0001
     31  C         -4.9410    4.3990   -2.7850 C.2    20  ILE20       0.2617
     32  O         -4.8590    3.1790   -2.5280 O.2    20  ILE20      -0.2715
     33  N         -5.5740    4.8700   -3.8240 N.am   21  TRP21      -0.1941
     34  CA        -6.5840    4.1470   -4.6190 C.3    21  TRP21       0.1982
     35  CB        -7.9200    4.1250   -3.7570 C.3    21  TRP21       0.0394
     36  CG        -8.4250    5.4530   -3.3620 C.3    21  TRP21       0.0475
     37  CD1       -8.1190    6.0680   -2.2450 C.3    21  TRP21       0.1166
     38  NE1       -8.7560    7.2690   -2.1720 N.pl3  21  TRP21      -0.2376
     39  CE2       -9.5810    7.4730   -3.2750 C.ar   21  TRP21       0.0614
     40  CZ2      -10.4220    8.4750   -3.7020 C.ar   21  TRP21       0.0158
     41  CH2      -11.1680    8.3670   -4.9280 C.ar   21  TRP21       0.0013
     42  CZ3      -11.0860    7.1640   -5.6280 C.ar   21  TRP21      -0.0002
     43  CE3      -10.1730    6.1170   -5.2330 C.ar   21  TRP21      -0.0030
     44  CD2       -9.4090    6.2620   -4.0570 C.ar   21  TRP21      -0.0059
     45  C         -6.7510    4.7320   -6.0260 C.2    21  TRP21       0.3842
     46  O         -6.9370    3.8970   -6.9640 O.co2  21  TRP21      -0.2437
     47  OXT       -6.5930    5.9650   -6.2350 O.co2  21  TRP21      -0.2437
@<TRIPOS>BOND
     1    40    41   ar
     2    40    39   ar
     3    41    42   ar
     4    39    38    1
     5    39    44   ar
     6    42    43   ar
     7    38    37    1
     8    43    44   ar
     9    44    36    1
    10    37    36    1
    11    36    35    1
    12    47    45   ar
    13     5     4    1
    14    35    34    1
    15    45    34    1
    16    45    46   ar
    17    34    33    1
    18     8     7    2
    19     4     6    1
    20     4     3    1
    21     2     3    1
    22     2     1    1
    23     2     7    1
    24     7     9   am
    25    33    31   am
    26    32    31    2
    27    31    26    1
    28     9    10    1
    29    10    11    1
    30    10    15    1
    31    26    27    1
    32    26    25    1
    33    11    12    1
    34    13    12   ar
    35    27    29    1
    36    27    28    1
    37    29    30    1
    38    16    15    2
    39    15    17   am
    40    12    14   ar
    41    25    23   am
    42    17    18    1
    43    23    24    2
    44    23    18    1
    45    18    19    1
    46    19    21    1
    47    19    20    1
    48    21    22    1
