@<TRIPOS>MOLECULE
../ET1/ET1_17-21_50CONFORMERS_NOBACKBONE.pdb
 26 23 0 0 0
SMALL
GASTEIGER

@<TRIPOS>ATOM
      1  CB        -6.1140   -1.8820   -0.4900 C.3    17  LEU17       0.0000
      2  CG        -7.2650   -2.7690   -0.6600 C.3    17  LEU17       0.0000
      3  CD1       -7.3900   -3.4950   -2.0480 C.3    17  LEU17       0.0000
      4  CD2       -7.1410   -3.7620    0.4720 C.3    17  LEU17       0.0000
      5  CB        -9.1410    1.7570   -0.1550 C.3    18  ASP18       0.1258
      6  CG       -10.1710    2.8850   -0.2460 C.2    18  ASP18       0.3654
      7  OD1      -10.6760    3.2080   -1.3630 O.co2  18  ASP18      -0.2456
      8  OD2      -10.4770    3.5040    0.7690 O.co2  18  ASP18      -0.2456
      9  CB        -5.6040    4.3930    2.7640 C.3    19  ILE19       0.0000
     10  CG2       -4.2170    3.6840    2.7970 C.3    19  ILE19       0.0000
     11  CG1       -5.5280    5.7000    3.6000 C.3    19  ILE19       0.0000
     12  CD1       -5.4860    5.6870    5.1130 C.3    19  ILE19       0.0000
     13  CB        -1.9560    5.2450   -0.9570 C.3    20  ILE20       0.0000
     14  CG2       -1.7080    6.3380    0.0690 C.3    20  ILE20       0.0000
     15  CG1       -1.3600    3.9820   -0.3460 C.3    20  ILE20       0.0000
     16  CD1        0.1990    3.7350   -0.5770 C.3    20  ILE20       0.0000
     17  CB        -6.1240    4.0010   -4.7070 C.3    21  TRP21       0.0066
     18  CG        -6.3580    2.9820   -5.7480 C.3    21  TRP21       0.0452
     19  CD1       -7.0560    3.2340   -6.9070 C.3    21  TRP21       0.1165
     20  NE1       -7.0290    2.1090   -7.7360 N.pl3  21  TRP21      -0.2376
     21  CE2       -6.3000    1.0730   -7.1490 C.ar   21  TRP21       0.0614
     22  CZ2       -5.8740   -0.1620   -7.5750 C.ar   21  TRP21       0.0158
     23  CH2       -5.1360   -1.0060   -6.7390 C.ar   21  TRP21       0.0013
     24  CZ3       -4.8080   -0.5800   -5.4470 C.ar   21  TRP21      -0.0002
     25  CE3       -5.1980    0.7150   -5.0400 C.ar   21  TRP21      -0.0030
     26  CD2       -5.8780    1.5800   -5.8800 C.ar   21  TRP21      -0.0059
@<TRIPOS>BOND
     1    22    23   ar
     2    22    21   ar
     3    23    24   ar
     4    21    20    1
     5    21    26   ar
     6    24    25   ar
     7    20    19    1
     8    25    26   ar
     9    26    18    1
    10    19    18    1
    11    18    17    1
    12     3     2    1
    13     2     4    1
    14     2     1    1
    15     5     6    1
    16     7     6   ar
    17    13    15    1
    18    13    14    1
    19    15    16    1
    20     6     8   ar
    21     9    11    1
    22     9    10    1
    23    11    12    1
@<TRIPOS>MOLECULE
02228316B
 42 46 0 0 0
SMALL
GASTEIGER

@<TRIPOS>ATOM
      1 C          -4.6007    4.1841    1.9170 C.3     1  LIG11       0.2491
      2 C          -4.3601    2.7652    1.4391 C.2     1  LIG11       0.3556
      3 N          -3.8328    5.0186    0.9574 N.2     1  LIG11      -0.0687
      4 C          -6.0757    4.5938    1.9143 C.3     1  LIG11       0.0059
      5 C          -4.0772    4.4096    3.3393 C.3     1  LIG11       0.0059
      6 N          -3.4691    2.8674    0.4090 N.am    1  LIG11      -0.1529
      7 O          -4.8578    1.7474    1.8943 O.2     1  LIG11      -0.2422
      8 C          -3.2213    4.1692    0.1880 C.2     1  LIG11       0.2916
      9 C          -6.4147    4.8709    3.3765 C.3     1  LIG11      -0.0481
     10 C          -5.1003    5.3394    3.9762 C.3     1  LIG11      -0.0481
     11 C          -2.9008    1.7041   -0.2514 C.3     1  LIG11       0.1137
     12 C          -2.3079    4.6412   -0.9172 C.3     1  LIG11       0.0509
     13 C          -3.4856    1.4249   -1.6169 C.ar    1  LIG11      -0.0073
     14 C          -1.2185    5.5830   -0.4028 C.3     1  LIG11      -0.0424
     15 C          -4.8677    1.3673   -1.8215 C.ar    1  LIG11      -0.0491
     16 C          -2.6485    1.1469   -2.6990 C.ar    1  LIG11      -0.0544
     17 C          -0.2280    4.8766    0.5254 C.3     1  LIG11      -0.0554
     18 C          -5.4207    1.0091   -3.0729 C.ar    1  LIG11      -0.0138
     19 C          -3.1817    0.7707   -3.9364 C.ar    1  LIG11      -0.0533
     20 C           0.8959    5.8095    0.9487 C.3     1  LIG11      -0.0653
     21 C          -4.5656    0.6155   -4.1327 C.ar    1  LIG11      -0.0106
     22 C          -6.9228    1.1428   -3.2194 C.3     1  LIG11       0.0732
     23 C          -5.0537    0.0850   -5.4274 C.ar    1  LIG11       0.0091
     24 O          -7.3090    2.2998   -3.9713 O.3     1  LIG11      -0.3754
     25 C          -4.8451   -1.2224   -5.9199 C.ar    1  LIG11       0.1162
     26 C          -5.7794    0.9612   -6.2669 C.ar    1  LIG11      -0.0521
     27 C          -7.0516    3.5582   -3.3484 C.3     1  LIG11       0.0453
     28 S          -3.8841   -2.5077   -5.1208 S.O2    1  LIG11       0.0741
     29 C          -5.3491   -1.5976   -7.1889 C.ar    1  LIG11      -0.0345
     30 C          -6.3136    0.5682   -7.4977 C.ar    1  LIG11      -0.0611
     31 C          -5.8260    4.2252   -3.9540 C.3     1  LIG11      -0.0416
     32 N          -5.0855   -3.5139   -4.4550 N.pl3   1  LIG11      -0.1965
     33 O          -3.1644   -3.2024   -6.1703 O.2     1  LIG11      -0.1499
     34 O          -3.1681   -1.9985   -3.9737 O.2     1  LIG11      -0.1499
     35 C          -6.0973   -0.7168   -7.9617 C.ar    1  LIG11      -0.0599
     36 C          -5.3752   -4.6890   -5.1409 C.ar    1  LIG11       0.1837
     37 C          -6.5151   -4.9100   -5.9507 C.ar    1  LIG11       0.0342
     38 N          -4.6368   -5.7902   -5.0066 N.ar    1  LIG11      -0.0614
     39 C          -6.3267   -6.1930   -6.4188 C.ar    1  LIG11       0.1390
     40 C          -7.6507   -4.0030   -6.2218 C.3     1  LIG11      -0.0330
     41 O          -5.2069   -6.7217   -5.8560 O.2     1  LIG11      -0.3578
     42 C          -7.0640   -7.0716   -7.3457 C.3     1  LIG11      -0.0034
@<TRIPOS>BOND
     1     1     5    1
     2     1     4    1
     3     1     2    1
     4     1     3    1
     5     2     6   am
     6     2     7    2
     7     3     8    2
     8     4     9    1
     9     5    10    1
    10     6     8    1
    11     6    11    1
    12     8    12    1
    13     9    10    1
    14    11    13    1
    15    12    14    1
    16    13    15   ar
    17    13    16   ar
    18    14    17    1
    19    15    18   ar
    20    16    19   ar
    21    17    20    1
    22    18    21   ar
    23    18    22    1
    24    19    21   ar
    25    21    23    1
    26    22    24    1
    27    23    26   ar
    28    23    25   ar
    29    24    27    1
    30    25    29   ar
    31    25    28    1
    32    26    30   ar
    33    27    31    1
    34    28    34    2
    35    28    33    2
    36    28    32    1
    37    29    35   ar
    38    30    35   ar
    39    32    36    1
    40    36    37   ar
    41    36    38   ar
    42    37    39   ar
    43    37    40    1
    44    38    41   ar
    45    39    41   ar
    46    39    42    1
@<TRIPOS>MOLECULE
../ET1/ET1_17-21_50CONFORMERS.pdb
 47 48 0 0 0
SMALL
GASTEIGER

@<TRIPOS>ATOM
      1  N         -4.4560   -0.3720   -1.4100 N.3    17  LEU17      -0.1231
      2  CA        -5.7750   -0.9810   -1.6350 C.3    17  LEU17       0.1693
      3  CB        -6.1140   -1.8820   -0.4900 C.3    17  LEU17       0.0284
      4  CG        -7.2650   -2.7690   -0.6600 C.3    17  LEU17       0.0019
      5  CD1       -7.3900   -3.4950   -2.0480 C.3    17  LEU17       0.0001
      6  CD2       -7.1410   -3.7620    0.4720 C.3    17  LEU17       0.0001
      7  C         -6.8180    0.1010   -1.9410 C.2    17  LEU17       0.2592
      8  O         -7.4610    0.1730   -2.9890 O.2    17  LEU17      -0.2718
      9  N         -6.9410    1.0200   -1.0240 N.am   18  ASP18      -0.1960
     10  CA        -7.8920    2.0760   -0.9710 C.3    18  ASP18       0.1840
     11  CB        -9.1410    1.7570   -0.1550 C.3    18  ASP18       0.1450
     12  CG       -10.1710    2.8850   -0.2460 C.2    18  ASP18       0.3671
     13  OD1      -10.6760    3.2080   -1.3630 O.co2  18  ASP18      -0.2456
     14  OD2      -10.4770    3.5040    0.7690 O.co2  18  ASP18      -0.2456
     15  C         -7.3040    3.3930   -0.4690 C.2    18  ASP18       0.2622
     16  O         -7.4930    4.4290   -1.1530 O.2    18  ASP18      -0.2715
     17  N         -6.6350    3.4290    0.6890 N.am   19  ILE19      -0.1963
     18  CA        -6.1350    4.6890    1.3090 C.3    19  ILE19       0.1727
     19  CB        -5.6040    4.3930    2.7640 C.3    19  ILE19       0.0290
     20  CG2       -4.2170    3.6840    2.7970 C.3    19  ILE19       0.0023
     21  CG1       -5.5280    5.7000    3.6000 C.3    19  ILE19       0.0022
     22  CD1       -5.4860    5.6870    5.1130 C.3    19  ILE19       0.0001
     23  C         -5.1070    5.4490    0.5370 C.2    19  ILE19       0.2616
     24  O         -5.1960    6.6560    0.4640 O.2    19  ILE19      -0.2715
     25  N         -4.2840    4.6940   -0.2350 N.am   20  ILE20      -0.1963
     26  CA        -3.4500    5.2380   -1.3280 C.3    20  ILE20       0.1727
     27  CB        -1.9560    5.2450   -0.9570 C.3    20  ILE20       0.0290
     28  CG2       -1.7080    6.3380    0.0690 C.3    20  ILE20       0.0023
     29  CG1       -1.3600    3.9820   -0.3460 C.3    20  ILE20       0.0022
     30  CD1        0.1990    3.7350   -0.5770 C.3    20  ILE20       0.0001
     31  C         -3.7190    4.5000   -2.6710 C.2    20  ILE20       0.2617
     32  O         -3.3930    3.3260   -2.8100 O.2    20  ILE20      -0.2715
     33  N         -4.3990    5.2200   -3.5400 N.am   21  TRP21      -0.1941
     34  CA        -4.8320    4.8230   -4.8440 C.3    21  TRP21       0.1982
     35  CB        -6.1240    4.0010   -4.7070 C.3    21  TRP21       0.0394
     36  CG        -6.3580    2.9820   -5.7480 C.3    21  TRP21       0.0475
     37  CD1       -7.0560    3.2340   -6.9070 C.3    21  TRP21       0.1166
     38  NE1       -7.0290    2.1090   -7.7360 N.pl3  21  TRP21      -0.2376
     39  CE2       -6.3000    1.0730   -7.1490 C.ar   21  TRP21       0.0614
     40  CZ2       -5.8740   -0.1620   -7.5750 C.ar   21  TRP21       0.0158
     41  CH2       -5.1360   -1.0060   -6.7390 C.ar   21  TRP21       0.0013
     42  CZ3       -4.8080   -0.5800   -5.4470 C.ar   21  TRP21      -0.0002
     43  CE3       -5.1980    0.7150   -5.0400 C.ar   21  TRP21      -0.0030
     44  CD2       -5.8780    1.5800   -5.8800 C.ar   21  TRP21      -0.0059
     45  C         -4.7330    5.9630   -5.8230 C.2    21  TRP21       0.3842
     46  O         -5.4460    6.9620   -5.6560 O.co2  21  TRP21      -0.2437
     47  OXT       -4.0270    5.7560   -6.8330 O.co2  21  TRP21      -0.2437
@<TRIPOS>BOND
     1    40    41   ar
     2    40    39   ar
     3    41    42   ar
     4    39    38    1
     5    39    44   ar
     6    42    43   ar
     7    38    37    1
     8    43    44   ar
     9    44    36    1
    10    37    36    1
    11    36    35    1
    12    47    45   ar
    13     5     4    1
    14    35    34    1
    15    45    34    1
    16    45    46   ar
    17    34    33    1
    18     8     7    2
    19     4     6    1
    20     4     3    1
    21     2     3    1
    22     2     1    1
    23     2     7    1
    24     7     9   am
    25    33    31   am
    26    32    31    2
    27    31    26    1
    28     9    10    1
    29    10    11    1
    30    10    15    1
    31    26    27    1
    32    26    25    1
    33    11    12    1
    34    13    12   ar
    35    27    29    1
    36    27    28    1
    37    29    30    1
    38    16    15    2
    39    15    17   am
    40    12    14   ar
    41    25    23   am
    42    17    18    1
    43    23    24    2
    44    23    18    1
    45    18    19    1
    46    19    21    1
    47    19    20    1
    48    21    22    1
