@<TRIPOS>MOLECULE
../ET1/ET1_17-21_50CONFORMERS_NOBACKBONE.pdb
 26 23 0 0 0
SMALL
GASTEIGER

@<TRIPOS>ATOM
      1  CB        -6.1060   -1.8910   -0.6040 C.3    17  LEU17       0.0000
      2  CG        -7.3260   -2.7700   -0.5110 C.3    17  LEU17       0.0000
      3  CD1       -7.5330   -3.5860   -1.8080 C.3    17  LEU17       0.0000
      4  CD2       -7.1750   -3.7620    0.6380 C.3    17  LEU17       0.0000
      5  CB        -9.6350    1.1900    0.6620 C.3    18  ASP18       0.1258
      6  CG       -10.7540    2.0760    1.0750 C.2    18  ASP18       0.3654
      7  OD1      -10.7090    2.5980    2.1810 O.co2  18  ASP18      -0.2456
      8  OD2      -11.7750    2.1680    0.3490 O.co2  18  ASP18      -0.2456
      9  CB        -5.6060    4.1530    3.1840 C.3    19  ILE19       0.0000
     10  CG2       -5.0710    5.4630    3.7780 C.3    19  ILE19       0.0000
     11  CG1       -6.3130    3.3110    4.2570 C.3    19  ILE19       0.0000
     12  CD1       -7.4260    3.9890    5.0080 C.3    19  ILE19       0.0000
     13  CB        -2.4570    5.3180   -0.3440 C.3    20  ILE20       0.0000
     14  CG2       -2.2540    6.0130    0.9630 C.3    20  ILE20       0.0000
     15  CG1       -1.6850    3.9000   -0.3880 C.3    20  ILE20       0.0000
     16  CD1       -0.1170    4.0540   -0.3600 C.3    20  ILE20       0.0000
     17  CB        -5.5920    5.9330   -5.0080 C.3    21  TRP21       0.0066
     18  CG        -6.7500    5.3280   -4.2680 C.3    21  TRP21       0.0452
     19  CD1       -7.2600    5.6560   -3.0690 C.3    21  TRP21       0.1165
     20  NE1       -8.2550    4.7710   -2.7510 N.pl3  21  TRP21      -0.2376
     21  CE2       -8.5230    3.9140   -3.8170 C.ar   21  TRP21       0.0614
     22  CZ2       -9.4410    2.8940   -4.0290 C.ar   21  TRP21       0.0158
     23  CH2       -9.4520    2.1750   -5.2310 C.ar   21  TRP21       0.0013
     24  CZ3       -8.7260    2.6660   -6.3270 C.ar   21  TRP21      -0.0002
     25  CE3       -7.8990    3.7620   -6.1480 C.ar   21  TRP21      -0.0030
     26  CD2       -7.6800    4.3580   -4.8730 C.ar   21  TRP21      -0.0059
@<TRIPOS>BOND
     1    22    23   ar
     2    22    21   ar
     3    23    24   ar
     4    21    20    1
     5    21    26   ar
     6    24    25   ar
     7    20    19    1
     8    25    26   ar
     9    26    18    1
    10    19    18    1
    11    18    17    1
    12     3     2    1
    13     2     4    1
    14     2     1    1
    15     5     6    1
    16     7     6   ar
    17    13    15    1
    18    13    14    1
    19    15    16    1
    20     6     8   ar
    21     9    11    1
    22     9    10    1
    23    11    12    1
@<TRIPOS>MOLECULE
123882
 66 71 0 0 0
SMALL
GASTEIGER

@<TRIPOS>ATOM
      1 S          -5.0280    1.2221   -6.0449 S.2     3  UNK33      -0.0993
      2 O          -4.7933    6.4884    3.4207 O.2     1  UNK11      -0.2755
      3 O          -9.4865   -1.7938   -0.8300 O.2     4  LEU44      -0.2738
      4 O          -6.2088    5.2733    0.6487 O.2     1  UNK11      -0.2737
      5 O          -8.3157    1.9791   -0.2725 O.2     5  TRP55      -0.2738
      6 O          -9.1985    4.2318    1.9982 O.2     6  ASP66      -0.2738
      7 O          -6.8240    0.0049   -4.1684 O.2     3  UNK33      -0.2734
      8 O          -5.3734    1.2878   -0.2767 O.2     2  ASP22      -0.2737
      9 OD1       -11.5832    0.0069    2.6517 O.co2   6  ASP66      -0.5497
     10 OD2       -10.6483   -0.3063    4.7172 O.co2   6  ASP66      -0.5497
     11 OD1        -2.2776    0.6656    0.1280 O.co2   2  ASP22      -0.5497
     12 OD2        -3.0197    1.6505    2.0649 O.co2   2  ASP22      -0.5497
     13 N          -3.6688    5.4854    5.1321 N.am    1  UNK11      -0.2984
     14 N          -2.4920    6.2016    7.6790 N.pl3   1  UNK11      -0.3269
     15 N          -7.3852    3.1486    2.8994 N.am    1  UNK11      -0.3020
     16 N          -9.1837    0.1190   -2.0175 N.am    5  TRP55      -0.3022
     17 N          -6.4336   -0.2088   -1.9774 N.am    4  LEU44      -0.3022
     18 N         -10.1528    1.6563    1.0553 N.am    6  ASP66      -0.3021
     19 N          -4.8299    3.5771    1.2900 N.am    2  ASP22      -0.3021
     20 N          -5.0742    2.5350   -2.1766 N.am    3  UNK33      -0.2984
     21 NE1        -9.0708    4.8737   -3.1155 N.ar    5  TRP55      -0.3604
     22 C          -2.7687    6.6364    5.2308 C.3     1  UNK11       0.0304
     23 C          -3.4940    4.4501    6.1601 C.3     1  UNK11       0.0304
     24 C          -1.7996    6.5541    6.4225 C.3     1  UNK11       0.0280
     25 C          -3.4663    5.0796    7.5709 C.3     1  UNK11       0.0280
     26 C          -4.6494    5.5071    4.1492 C.2     1  UNK11       0.2179
     27 C          -5.5432    4.2853    4.0517 C.3     1  UNK11       0.0510
     28 C          -6.5381    4.3513    2.8907 C.3     1  UNK11       0.1076
     29 CA         -7.2464   -1.4070   -1.7447 C.3     4  LEU44       0.0997
     30 CB         -6.5658   -2.1850   -0.5972 C.3     4  LEU44      -0.0236
     31 CA        -10.2146    0.8687   -1.2975 C.3     5  TRP55       0.1034
     32 C          -2.8608    7.2031    8.5831 C.ar    1  UNK11       0.0298
     33 CG         -7.1510   -3.5515   -0.1993 C.3     4  LEU44      -0.0446
     34 CB        -10.9677    1.8511   -2.1989 C.3     5  TRP55       0.0013
     35 C          -8.7205   -1.0449   -1.4331 C.2     4  LEU44       0.2340
     36 CA         -9.3550    1.7979    2.2746 C.3     6  ASP66       0.1045
     37 C          -5.8496    4.4676    1.5076 C.2     1  UNK11       0.2344
     38 CG        -10.1364    2.9356   -2.8259 C.ar    5  TRP55      -0.0201
     39 C          -9.4703    1.5663   -0.1397 C.2     5  TRP55       0.2343
     40 C          -8.6511    3.1815    2.3311 C.2     6  ASP66       0.2343
     41 CA         -4.2139    3.3991   -0.0137 C.3     2  ASP22       0.1045
     42 CD2        -7.1624   -4.5456   -1.3567 C.3     4  LEU44      -0.0626
     43 CD1        -6.3595   -4.1252    0.9817 C.3     4  LEU44      -0.0626
     44 C          -5.0143    1.4541   -3.1776 C.3     3  UNK33       0.1311
     45 C          -3.1059    6.8711    9.9265 C.ar    1  UNK11      -0.0407
     46 C          -2.9939    8.5534    8.2293 C.ar    1  UNK11      -0.0407
     47 CD2        -9.4622    2.9104   -4.0915 C.ar    5  TRP55       0.0029
     48 C          -6.2112    0.4091   -3.1811 C.2     3  UNK33       0.2390
     49 CB        -10.1943    1.6806    3.5434 C.3     6  ASP66       0.0138
     50 CD1        -9.8802    4.1726   -2.2668 C.ar    5  TRP55       0.0060
     51 CE2        -8.8387    4.1483   -4.2596 C.ar    5  TRP55       0.0467
     52 C          -4.9750    2.3150   -0.8094 C.2     2  ASP22       0.2345
     53 CB         -2.7572    2.9702    0.1282 C.3     2  ASP22       0.0138
     54 C          -3.4561    7.8401   10.8739 C.ar    1  UNK11      -0.0600
     55 C          -3.3551    9.5274    9.1682 C.ar    1  UNK11      -0.0600
     56 C          -4.7376    2.0810   -4.5695 C.ar    3  UNK33       0.0189
     57 CE3        -9.3104    1.9439   -5.1052 C.ar    5  TRP55      -0.0523
     58 C          -3.5813    9.1710   10.4928 C.ar    1  UNK11      -0.0616
     59 CZ2        -8.1085    4.4827   -5.4069 C.ar    5  TRP55      -0.0378
     60 CG        -10.8607    0.3204    3.6448 C.2     6  ASP66       0.0440
     61 CZ3        -8.5833    2.2600   -6.2582 C.ar    5  TRP55      -0.0611
     62 C          -4.1048    3.2824   -4.8816 C.ar    3  UNK33      -0.0493
     63 CH2        -8.0081    3.5181   -6.4123 C.ar    5  TRP55      -0.0598
     64 CG         -2.6882    1.6214    0.8459 C.2     2  ASP22       0.0440
     65 C          -4.1127    3.5869   -6.2764 C.ar    3  UNK33      -0.0544
     66 C          -4.6697    2.5727   -7.0144 C.ar    3  UNK33      -0.0240
@<TRIPOS>BOND
     1     1    56   ar
     2     1    66   ar
     3     2    26    2
     4     3    35    2
     5     4    37    2
     6     5    39    2
     7     6    40    2
     8     7    48    2
     9     8    52    2
    10     9    60   ar
    11    10    60   ar
    12    11    64   ar
    13    12    64   ar
    14    13    22    1
    15    13    23    1
    16    14    24    1
    17    14    25    1
    18    14    32    1
    19    15    28    1
    20    15    40   am
    21    16    35   am
    22    16    31    1
    23    17    48   am
    24    17    29    1
    25    18    39   am
    26    18    36    1
    27    19    37   am
    28    19    41    1
    29    20    52   am
    30    20    44    1
    31    21    50   ar
    32    21    51   ar
    33    22    24    1
    34    23    25    1
    35    26    27    1
    36    26    13   am
    37    28    37    1
    38    28    27    1
    39    29    35    1
    40    29    30    1
    41    30    33    1
    42    31    39    1
    43    31    34    1
    44    32    45   ar
    45    32    46   ar
    46    33    43    1
    47    33    42    1
    48    34    38    1
    49    36    40    1
    50    36    49    1
    51    38    47   ar
    52    38    50   ar
    53    41    52    1
    54    41    53    1
    55    44    48    1
    56    44    56    1
    57    45    54   ar
    58    46    55   ar
    59    47    57   ar
    60    47    51   ar
    61    49    60    1
    62    51    59   ar
    63    53    64    1
    64    54    58   ar
    65    55    58   ar
    66    56    62   ar
    67    57    61   ar
    68    59    63   ar
    69    61    63   ar
    70    62    65   ar
    71    65    66   ar
@<TRIPOS>MOLECULE
../ET1/ET1_17-21_50CONFORMERS.pdb
 47 48 0 0 0
SMALL
GASTEIGER

@<TRIPOS>ATOM
      1  N         -4.8600   -0.0130   -1.6420 N.3    17  LEU17      -0.1231
      2  CA        -6.1110   -0.7850   -1.7070 C.3    17  LEU17       0.1693
      3  CB        -6.1060   -1.8910   -0.6040 C.3    17  LEU17       0.0284
      4  CG        -7.3260   -2.7700   -0.5110 C.3    17  LEU17       0.0019
      5  CD1       -7.5330   -3.5860   -1.8080 C.3    17  LEU17       0.0001
      6  CD2       -7.1750   -3.7620    0.6380 C.3    17  LEU17       0.0001
      7  C         -7.3910    0.1230   -1.5920 C.2    17  LEU17       0.2592
      8  O         -8.2890    0.1400   -2.4470 O.2    17  LEU17      -0.2718
      9  N         -7.4630    1.0230   -0.5710 N.am   18  ASP18      -0.1960
     10  CA        -8.6060    1.9280   -0.1770 C.3    18  ASP18       0.1840
     11  CB        -9.6350    1.1900    0.6620 C.3    18  ASP18       0.1450
     12  CG       -10.7540    2.0760    1.0750 C.2    18  ASP18       0.3671
     13  OD1      -10.7090    2.5980    2.1810 O.co2  18  ASP18      -0.2456
     14  OD2      -11.7750    2.1680    0.3490 O.co2  18  ASP18      -0.2456
     15  C         -8.1270    3.2690    0.4310 C.2    18  ASP18       0.2622
     16  O         -8.4550    4.3680   -0.0320 O.2    18  ASP18      -0.2715
     17  N         -7.2680    3.2890    1.4350 N.am   19  ILE19      -0.1963
     18  CA        -6.6180    4.4780    2.0110 C.3    19  ILE19       0.1727
     19  CB        -5.6060    4.1530    3.1840 C.3    19  ILE19       0.0290
     20  CG2       -5.0710    5.4630    3.7780 C.3    19  ILE19       0.0023
     21  CG1       -6.3130    3.3110    4.2570 C.3    19  ILE19       0.0022
     22  CD1       -7.4260    3.9890    5.0080 C.3    19  ILE19       0.0001
     23  C         -5.8570    5.2320    0.9330 C.2    19  ILE19       0.2616
     24  O         -6.1630    6.4430    0.7480 O.2    19  ILE19      -0.2715
     25  N         -4.8930    4.6150    0.2110 N.am   20  ILE20      -0.1963
     26  CA        -4.0370    5.3340   -0.7450 C.3    20  ILE20       0.1727
     27  CB        -2.4570    5.3180   -0.3440 C.3    20  ILE20       0.0290
     28  CG2       -2.2540    6.0130    0.9630 C.3    20  ILE20       0.0023
     29  CG1       -1.6850    3.9000   -0.3880 C.3    20  ILE20       0.0022
     30  CD1       -0.1170    4.0540   -0.3600 C.3    20  ILE20       0.0001
     31  C         -4.2350    4.7430   -2.1630 C.2    20  ILE20       0.2617
     32  O         -4.5360    3.5640   -2.2730 O.2    20  ILE20      -0.2715
     33  N         -4.0240    5.5760   -3.2320 N.am   21  TRP21      -0.1941
     34  CA        -4.2060    5.3440   -4.6130 C.3    21  TRP21       0.1982
     35  CB        -5.5920    5.9330   -5.0080 C.3    21  TRP21       0.0394
     36  CG        -6.7500    5.3280   -4.2680 C.3    21  TRP21       0.0475
     37  CD1       -7.2600    5.6560   -3.0690 C.3    21  TRP21       0.1166
     38  NE1       -8.2550    4.7710   -2.7510 N.pl3  21  TRP21      -0.2376
     39  CE2       -8.5230    3.9140   -3.8170 C.ar   21  TRP21       0.0614
     40  CZ2       -9.4410    2.8940   -4.0290 C.ar   21  TRP21       0.0158
     41  CH2       -9.4520    2.1750   -5.2310 C.ar   21  TRP21       0.0013
     42  CZ3       -8.7260    2.6660   -6.3270 C.ar   21  TRP21      -0.0002
     43  CE3       -7.8990    3.7620   -6.1480 C.ar   21  TRP21      -0.0030
     44  CD2       -7.6800    4.3580   -4.8730 C.ar   21  TRP21      -0.0059
     45  C         -3.2090    5.9310   -5.5650 C.2    21  TRP21       0.3842
     46  O         -2.3720    6.7390   -5.0730 O.co2  21  TRP21      -0.2437
     47  OXT       -3.1210    5.4890   -6.7230 O.co2  21  TRP21      -0.2437
@<TRIPOS>BOND
     1    40    41   ar
     2    40    39   ar
     3    41    42   ar
     4    39    38    1
     5    39    44   ar
     6    42    43   ar
     7    38    37    1
     8    43    44   ar
     9    44    36    1
    10    37    36    1
    11    36    35    1
    12    47    45   ar
    13     5     4    1
    14    35    34    1
    15    45    34    1
    16    45    46   ar
    17    34    33    1
    18     8     7    2
    19     4     6    1
    20     4     3    1
    21     2     3    1
    22     2     1    1
    23     2     7    1
    24     7     9   am
    25    33    31   am
    26    32    31    2
    27    31    26    1
    28     9    10    1
    29    10    11    1
    30    10    15    1
    31    26    27    1
    32    26    25    1
    33    11    12    1
    34    13    12   ar
    35    27    29    1
    36    27    28    1
    37    29    30    1
    38    16    15    2
    39    15    17   am
    40    12    14   ar
    41    25    23   am
    42    17    18    1
    43    23    24    2
    44    23    18    1
    45    18    19    1
    46    19    21    1
    47    19    20    1
    48    21    22    1
