@<TRIPOS>MOLECULE
../ET1/ET1_17-21_50CONFORMERS_NOBACKBONE.pdb
 26 23 0 0 0
SMALL
GASTEIGER

@<TRIPOS>ATOM
      1  CB        -6.2200   -2.0150   -2.2660 C.3    17  LEU17       0.0000
      2  CG        -7.4870   -2.7880   -2.7410 C.3    17  LEU17       0.0000
      3  CD1       -7.7560   -2.6580   -4.2950 C.3    17  LEU17       0.0000
      4  CD2       -7.2700   -4.2410   -2.4020 C.3    17  LEU17       0.0000
      5  CB        -9.2830    0.1420    0.9540 C.3    18  ASP18       0.1258
      6  CG       -10.4660    0.8060    1.7740 C.2    18  ASP18       0.3654
      7  OD1      -11.2950    1.5080    1.1310 O.co2  18  ASP18      -0.2456
      8  OD2      -10.5110    0.6630    3.0340 O.co2  18  ASP18      -0.2456
      9  CB        -5.1350    2.6390    3.5580 C.3    19  ILE19       0.0000
     10  CG2       -4.5740    3.8120    4.3410 C.3    19  ILE19       0.0000
     11  CG1       -5.7500    1.6370    4.5180 C.3    19  ILE19       0.0000
     12  CD1       -4.7460    0.7600    5.2450 C.3    19  ILE19       0.0000
     13  CB        -2.6220    4.7690   -0.2970 C.3    20  ILE20       0.0000
     14  CG2       -2.2290    5.8150   -1.3590 C.3    20  ILE20       0.0000
     15  CG1       -2.1680    5.1420    1.1400 C.3    20  ILE20       0.0000
     16  CD1       -0.6600    5.3030    1.3390 C.3    20  ILE20       0.0000
     17  CB        -7.1750    4.4700   -3.9070 C.3    21  TRP21       0.0066
     18  CG        -7.5360    3.9570   -5.2690 C.3    21  TRP21       0.0452
     19  CD1       -8.1900    4.7020   -6.2020 C.3    21  TRP21       0.1165
     20  NE1       -8.4500    3.9790   -7.3380 N.pl3  21  TRP21      -0.2376
     21  CE2       -7.7020    2.8280   -7.2740 C.ar   21  TRP21       0.0614
     22  CZ2       -7.5760    1.8010   -8.2060 C.ar   21  TRP21       0.0158
     23  CH2       -6.9090    0.6250   -7.7970 C.ar   21  TRP21       0.0013
     24  CZ3       -6.5580    0.4430   -6.4490 C.ar   21  TRP21      -0.0002
     25  CE3       -6.6670    1.4790   -5.5350 C.ar   21  TRP21      -0.0030
     26  CD2       -7.2610    2.6790   -5.9050 C.ar   21  TRP21      -0.0059
@<TRIPOS>BOND
     1    22    23   ar
     2    22    21   ar
     3    23    24   ar
     4    21    20    1
     5    21    26   ar
     6    24    25   ar
     7    20    19    1
     8    25    26   ar
     9    26    18    1
    10    19    18    1
    11    18    17    1
    12     3     2    1
    13     2     4    1
    14     2     1    1
    15     5     6    1
    16     7     6   ar
    17    13    15    1
    18    13    14    1
    19    15    16    1
    20     6     8   ar
    21     9    11    1
    22     9    10    1
    23    11    12    1
@<TRIPOS>MOLECULE
9939443
 43 47 0 0 0
SMALL
GASTEIGER

@<TRIPOS>ATOM
      1 S          -2.0305    1.0972   -5.1672 S.O2    1  LIG11       0.0908
      2 O          -5.1015   -0.4388   -5.5763 O.3     1  LIG11      -0.4435
      3 O          -3.0075    1.4139   -6.1827 O.2     1  LIG11      -0.1484
      4 O          -0.6325    0.9551   -5.5225 O.2     1  LIG11      -0.1484
      5 O          -7.2959   -0.6140   -3.5973 O.3     1  LIG11      -0.4715
      6 O          -6.0104   -1.1390   -8.2178 O.3     1  LIG11      -0.4914
      7 O          -5.8404   -3.3915   -3.9548 O.3     1  LIG11      -0.3917
      8 N          -2.4804   -0.3424   -4.3992 N.pl3   1  LIG11      -0.1950
      9 N          -1.2397    2.2422   -2.8927 N.ar    1  LIG11      -0.2351
     10 N          -3.4385   -0.2548   -2.3577 N.ar    1  LIG11      -0.2073
     11 N          -5.7689   -0.3571   -1.9584 N.ar    1  LIG11      -0.1899
     12 N          -3.7427    0.3509    2.6447 N.ar    1  LIG11      -0.2552
     13 N          -1.0241    0.6798    3.5540 N.ar    1  LIG11      -0.5621
     14 N          -0.2803    0.7222    1.4193 N.ar    1  LIG11      -0.1535
     15 N           0.2958    0.8651    3.4387 N.ar    1  LIG11      -0.3597
     16 N           0.7796    0.9047    2.1930 N.ar    1  LIG11      -0.0878
     17 C          -2.2271    5.3171   -0.8558 C.3     1  LIG11      -0.0201
     18 C          -2.2290    4.2387   -1.9201 C.ar    1  LIG11      -0.0266
     19 C          -2.4400    4.7376    0.5435 C.3     1  LIG11      -0.0586
     20 C          -0.9484    6.1568   -0.9145 C.3     1  LIG11      -0.0586
     21 C          -2.1591    2.3466   -3.8831 C.ar    1  LIG11       0.1969
     22 C          -3.1800    4.2707   -2.9486 C.ar    1  LIG11      -0.0535
     23 C          -1.2900    3.2043   -1.9422 C.ar    1  LIG11       0.0332
     24 C          -3.1460    3.3162   -3.9588 C.ar    1  LIG11      -0.0160
     25 C          -3.6975   -0.3288   -3.6697 C.ar    1  LIG11       0.1882
     26 C          -4.9609   -0.3704   -4.2257 C.ar    1  LIG11       0.2307
     27 C          -5.9719   -0.4717   -3.2897 C.ar    1  LIG11       0.2641
     28 C          -4.4999   -0.2393   -1.5423 C.ar    1  LIG11       0.1659
     29 C          -4.2453   -0.0464   -0.1044 C.ar    1  LIG11       0.0227
     30 C          -5.9801    0.3854   -6.2485 C.ar    1  LIG11       0.1702
     31 C          -2.9428    0.1681    0.3824 C.ar    1  LIG11      -0.0252
     32 C          -5.2831   -0.0520    0.8357 C.ar    1  LIG11      -0.0328
     33 C          -7.6414   -1.8067   -4.3178 C.3     1  LIG11       0.1143
     34 C          -6.3861   -0.0096   -7.5360 C.ar    1  LIG11       0.1621
     35 C          -2.7273    0.3591    1.7452 C.ar    1  LIG11       0.0708
     36 C          -6.4748    1.5855   -5.7136 C.ar    1  LIG11      -0.0157
     37 C          -4.9892    0.1466    2.1733 C.ar    1  LIG11       0.0289
     38 C          -7.2059   -3.1114   -3.6498 C.3     1  LIG11       0.0783
     39 C          -7.3321    0.7603   -8.2256 C.ar    1  LIG11      -0.0163
     40 C          -7.4103    2.3475   -6.4174 C.ar    1  LIG11      -0.0581
     41 C          -7.8451    1.9310   -7.6704 C.ar    1  LIG11      -0.0581
     42 C          -1.3716    0.5833    2.2550 C.ar    1  LIG11       0.0207
     43 C          -4.7174   -1.6665   -7.9437 C.3     1  LIG11       0.0790
@<TRIPOS>BOND
     1     1    21    1
     2     1     8    1
     3     1     4    2
     4     1     3    2
     5     2    26    1
     6     2    30    1
     7     5    27    1
     8     5    33    1
     9     6    34    1
    10     6    43    1
    11     7    38    1
    12     8    25    1
    13     9    23   ar
    14     9    21   ar
    15    10    25   ar
    16    10    28   ar
    17    11    27   ar
    18    11    28   ar
    19    12    37   ar
    20    12    35   ar
    21    13    15   ar
    22    13    42   ar
    23    14    42   ar
    24    14    16   ar
    25    15    16   ar
    26    17    18    1
    27    17    20    1
    28    17    19    1
    29    18    23   ar
    30    18    22   ar
    31    21    24   ar
    32    22    24   ar
    33    25    26   ar
    34    26    27   ar
    35    28    29    1
    36    29    31   ar
    37    29    32   ar
    38    30    36   ar
    39    30    34   ar
    40    31    35   ar
    41    32    37   ar
    42    33    38    1
    43    34    39   ar
    44    35    42    1
    45    36    40   ar
    46    39    41   ar
    47    40    41   ar
@<TRIPOS>MOLECULE
../ET1/ET1_17-21_50CONFORMERS.pdb
 47 48 0 0 0
SMALL
GASTEIGER

@<TRIPOS>ATOM
      1  N         -4.8370   -0.0020   -1.9180 N.3    17  LEU17      -0.1231
      2  CA        -6.1040   -0.5080   -2.4970 C.3    17  LEU17       0.1693
      3  CB        -6.2200   -2.0150   -2.2660 C.3    17  LEU17       0.0284
      4  CG        -7.4870   -2.7880   -2.7410 C.3    17  LEU17       0.0019
      5  CD1       -7.7560   -2.6580   -4.2950 C.3    17  LEU17       0.0001
      6  CD2       -7.2700   -4.2410   -2.4020 C.3    17  LEU17       0.0001
      7  C         -7.3010    0.2940   -1.9850 C.2    17  LEU17       0.2592
      8  O         -8.1870    0.7640   -2.7030 O.2    17  LEU17      -0.2718
      9  N         -7.3250    0.4390   -0.6370 N.am   18  ASP18      -0.1960
     10  CA        -8.4150    1.1160    0.1670 C.3    18  ASP18       0.1840
     11  CB        -9.2830    0.1420    0.9540 C.3    18  ASP18       0.1450
     12  CG       -10.4660    0.8060    1.7740 C.2    18  ASP18       0.3671
     13  OD1      -11.2950    1.5080    1.1310 O.co2  18  ASP18      -0.2456
     14  OD2      -10.5110    0.6630    3.0340 O.co2  18  ASP18      -0.2456
     15  C         -7.8360    2.3080    0.9830 C.2    18  ASP18       0.2622
     16  O         -8.4860    3.3440    1.0790 O.2    18  ASP18      -0.2715
     17  N         -6.7010    2.1280    1.6470 N.am   19  ILE19      -0.1963
     18  CA        -6.0990    3.1840    2.4620 C.3    19  ILE19       0.1727
     19  CB        -5.1350    2.6390    3.5580 C.3    19  ILE19       0.0290
     20  CG2       -4.5740    3.8120    4.3410 C.3    19  ILE19       0.0023
     21  CG1       -5.7500    1.6370    4.5180 C.3    19  ILE19       0.0022
     22  CD1       -4.7460    0.7600    5.2450 C.3    19  ILE19       0.0001
     23  C         -5.4410    4.2970    1.6860 C.2    19  ILE19       0.2616
     24  O         -5.5330    5.4920    2.0890 O.2    19  ILE19      -0.2715
     25  N         -4.7740    3.9320    0.5900 N.am   20  ILE20      -0.1963
     26  CA        -4.1940    4.7710   -0.3960 C.3    20  ILE20       0.1727
     27  CB        -2.6220    4.7690   -0.2970 C.3    20  ILE20       0.0290
     28  CG2       -2.2290    5.8150   -1.3590 C.3    20  ILE20       0.0023
     29  CG1       -2.1680    5.1420    1.1400 C.3    20  ILE20       0.0022
     30  CD1       -0.6600    5.3030    1.3390 C.3    20  ILE20       0.0001
     31  C         -4.8240    4.4170   -1.7390 C.2    20  ILE20       0.2617
     32  O         -4.8430    3.2640   -2.1320 O.2    20  ILE20      -0.2715
     33  N         -5.3440    5.3850   -2.5070 N.am   21  TRP21      -0.1941
     34  CA        -5.8430    5.2260   -3.8960 C.3    21  TRP21       0.1982
     35  CB        -7.1750    4.4700   -3.9070 C.3    21  TRP21       0.0394
     36  CG        -7.5360    3.9570   -5.2690 C.3    21  TRP21       0.0475
     37  CD1       -8.1900    4.7020   -6.2020 C.3    21  TRP21       0.1166
     38  NE1       -8.4500    3.9790   -7.3380 N.pl3  21  TRP21      -0.2376
     39  CE2       -7.7020    2.8280   -7.2740 C.ar   21  TRP21       0.0614
     40  CZ2       -7.5760    1.8010   -8.2060 C.ar   21  TRP21       0.0158
     41  CH2       -6.9090    0.6250   -7.7970 C.ar   21  TRP21       0.0013
     42  CZ3       -6.5580    0.4430   -6.4490 C.ar   21  TRP21      -0.0002
     43  CE3       -6.6670    1.4790   -5.5350 C.ar   21  TRP21      -0.0030
     44  CD2       -7.2610    2.6790   -5.9050 C.ar   21  TRP21      -0.0059
     45  C         -5.9490    6.5820   -4.5280 C.2    21  TRP21       0.3842
     46  O         -5.3290    6.8220   -5.5630 O.co2  21  TRP21      -0.2437
     47  OXT       -6.5920    7.4700   -3.9460 O.co2  21  TRP21      -0.2437
@<TRIPOS>BOND
     1    40    41   ar
     2    40    39   ar
     3    41    42   ar
     4    39    38    1
     5    39    44   ar
     6    42    43   ar
     7    38    37    1
     8    43    44   ar
     9    44    36    1
    10    37    36    1
    11    36    35    1
    12    47    45   ar
    13     5     4    1
    14    35    34    1
    15    45    34    1
    16    45    46   ar
    17    34    33    1
    18     8     7    2
    19     4     6    1
    20     4     3    1
    21     2     3    1
    22     2     1    1
    23     2     7    1
    24     7     9   am
    25    33    31   am
    26    32    31    2
    27    31    26    1
    28     9    10    1
    29    10    11    1
    30    10    15    1
    31    26    27    1
    32    26    25    1
    33    11    12    1
    34    13    12   ar
    35    27    29    1
    36    27    28    1
    37    29    30    1
    38    16    15    2
    39    15    17   am
    40    12    14   ar
    41    25    23   am
    42    17    18    1
    43    23    24    2
    44    23    18    1
    45    18    19    1
    46    19    21    1
    47    19    20    1
    48    21    22    1
