@<TRIPOS>MOLECULE
../ET1/ET1_17-21_50CONFORMERS_NOBACKBONE.pdb
 26 23 0 0 0
SMALL
GASTEIGER

@<TRIPOS>ATOM
      1  CB        -5.9840   -1.7530   -2.0080 C.3    17  LEU17       0.0000
      2  CG        -7.2840   -2.5520   -2.1910 C.3    17  LEU17       0.0000
      3  CD1       -7.5520   -2.7200   -3.7010 C.3    17  LEU17       0.0000
      4  CD2       -7.1010   -3.9580   -1.6060 C.3    17  LEU17       0.0000
      5  CB        -9.3360    0.5030    0.2000 C.3    18  ASP18       0.1258
      6  CG       -10.5620    1.0400    0.9330 C.2    18  ASP18       0.3654
      7  OD1      -11.5820    1.4390    0.3270 O.co2  18  ASP18      -0.2456
      8  OD2      -10.6020    0.9250    2.1700 O.co2  18  ASP18      -0.2456
      9  CB        -5.7240    3.4190    3.3350 C.3    19  ILE19       0.0000
     10  CG2       -5.2920    4.6760    4.1320 C.3    19  ILE19       0.0000
     11  CG1       -6.1290    2.2320    4.1470 C.3    19  ILE19       0.0000
     12  CD1       -7.3890    2.5360    5.0150 C.3    19  ILE19       0.0000
     13  CB        -3.2240    5.7090   -0.5910 C.3    20  ILE20       0.0000
     14  CG2       -3.3440    6.9610    0.1730 C.3    20  ILE20       0.0000
     15  CG1       -2.2390    4.6130   -0.1520 C.3    20  ILE20       0.0000
     16  CD1       -0.7490    4.9910   -0.4640 C.3    20  ILE20       0.0000
     17  CB        -7.1080    4.0630   -4.5610 C.3    21  TRP21       0.0066
     18  CG        -8.2250    4.9670   -4.1900 C.3    21  TRP21       0.0452
     19  CD1       -8.7040    5.2340   -2.9610 C.3    21  TRP21       0.1165
     20  NE1       -9.7700    6.1230   -3.0030 N.pl3  21  TRP21      -0.2376
     21  CE2      -10.0000    6.4240   -4.3510 C.ar   21  TRP21       0.0614
     22  CZ2      -10.9360    7.2380   -5.0320 C.ar   21  TRP21       0.0158
     23  CH2      -10.9170    7.4740   -6.4400 C.ar   21  TRP21       0.0013
     24  CZ3       -9.9650    6.7540   -7.1530 C.ar   21  TRP21      -0.0002
     25  CE3       -9.0360    5.8520   -6.5300 C.ar   21  TRP21      -0.0030
     26  CD2       -8.9440    5.8070   -5.1090 C.ar   21  TRP21      -0.0059
@<TRIPOS>BOND
     1    22    23   ar
     2    22    21   ar
     3    23    24   ar
     4    21    20    1
     5    21    26   ar
     6    24    25   ar
     7    20    19    1
     8    25    26   ar
     9    26    18    1
    10    19    18    1
    11    18    17    1
    12     3     2    1
    13     2     4    1
    14     2     1    1
    15     5     6    1
    16     7     6   ar
    17    13    15    1
    18    13    14    1
    19    15    16    1
    20     6     8   ar
    21     9    11    1
    22     9    10    1
    23    11    12    1
@<TRIPOS>MOLECULE
*****
 27 29 0 0 0
SMALL
GASTEIGER

@<TRIPOS>ATOM
      1 C         -10.6017    1.4271   -5.6501 C.ar    1  LIG11      -0.0615
      2 C         -11.1598    0.8264   -4.5278 C.ar    1  LIG11      -0.0617
      3 C         -10.9321    1.3744   -3.2690 C.ar    1  LIG11      -0.0615
      4 C         -10.1492    2.5263   -3.1291 C.ar    1  LIG11      -0.0576
      5 C          -9.5840    3.1617   -4.2479 C.ar    1  LIG11      -0.0332
      6 C          -9.8244    2.5800   -5.5112 C.ar    1  LIG11      -0.0576
      7 C          -8.7181    5.8674   -6.3212 C.ar    1  LIG11      -0.0576
      8 C          -9.3064    6.8273   -7.1537 C.ar    1  LIG11      -0.0615
      9 C         -10.4826    7.4635   -6.7724 C.ar    1  LIG11      -0.0617
     10 C         -11.0790    7.1303   -5.5626 C.ar    1  LIG11      -0.0615
     11 C         -10.4933    6.1675   -4.7354 C.ar    1  LIG11      -0.0576
     12 N          -6.6890    0.7149   -3.1830 N.ar    1  LIG11      -0.2002
     13 C          -6.4735    1.7430   -4.0213 C.ar    1  LIG11       0.3190
     14 N          -5.9566    1.6367   -5.2539 N.ar    1  LIG11      -0.2002
     15 C          -5.6602    0.3993   -5.6837 C.ar    1  LIG11       0.0453
     16 C          -5.8726   -0.7230   -4.9076 C.ar    1  LIG11      -0.0193
     17 C          -6.3917   -0.5125   -3.6449 C.ar    1  LIG11       0.0453
     18 C          -6.6810   -1.6571   -2.7248 C.3     1  LIG11      -0.0221
     19 C          -5.0841    0.2764   -7.0604 C.3     1  LIG11      -0.0221
     20 O          -6.7931    2.9738   -3.5098 O.3     1  LIG11      -0.4519
     21 C          -7.2064    3.9646   -4.4938 C.3     1  LIG11       0.1554
     22 C          -8.6711    4.4393   -4.1393 C.3     1  LIG11       0.0601
     23 C          -6.1206    5.0787   -4.5005 C.2     1  LIG11       0.0833
     24 O          -5.5925    5.3100   -5.6329 O.co2   1  LIG11      -0.5460
     25 O          -5.8617    5.6377   -3.3960 O.co2   1  LIG11      -0.5460
     26 C          -9.2840    5.5265   -5.0817 C.ar    1  LIG11      -0.0332
     27 C          -8.6702    5.0214   -2.6906 C.3     1  LIG11      -0.0477
@<TRIPOS>BOND
     1     1     2   ar
     2     2     3   ar
     3     3     4   ar
     4     4     5   ar
     5     5     6   ar
     6     5    22    1
     7     6     1   ar
     8     7     8   ar
     9     8     9   ar
    10     9    10   ar
    11    10    11   ar
    12    11    26   ar
    13    12    13   ar
    14    13    14   ar
    15    14    15   ar
    16    15    16   ar
    17    15    19    1
    18    16    17   ar
    19    17    12   ar
    20    17    18    1
    21    20    21    1
    22    20    13    1
    23    21    23    1
    24    21    22    1
    25    22    27    1
    26    22    26    1
    27    23    25   ar
    28    23    24   ar
    29    26     7   ar
@<TRIPOS>MOLECULE
../ET1/ET1_17-21_50CONFORMERS.pdb
 47 48 0 0 0
SMALL
GASTEIGER

@<TRIPOS>ATOM
      1  N         -4.5560    0.3400   -2.2290 N.3    17  LEU17      -0.1231
      2  CA        -5.8710   -0.3310   -2.5650 C.3    17  LEU17       0.1693
      3  CB        -5.9840   -1.7530   -2.0080 C.3    17  LEU17       0.0284
      4  CG        -7.2840   -2.5520   -2.1910 C.3    17  LEU17       0.0019
      5  CD1       -7.5520   -2.7200   -3.7010 C.3    17  LEU17       0.0001
      6  CD2       -7.1010   -3.9580   -1.6060 C.3    17  LEU17       0.0001
      7  C         -7.1730    0.4820   -2.1910 C.2    17  LEU17       0.2592
      8  O         -8.0190    0.7440   -3.0080 O.2    17  LEU17      -0.2718
      9  N         -7.2330    1.0000   -0.9610 N.am   18  ASP18      -0.1960
     10  CA        -8.4990    1.6070   -0.4260 C.3    18  ASP18       0.1840
     11  CB        -9.3360    0.5030    0.2000 C.3    18  ASP18       0.1450
     12  CG       -10.5620    1.0400    0.9330 C.2    18  ASP18       0.3671
     13  OD1      -11.5820    1.4390    0.3270 O.co2  18  ASP18      -0.2456
     14  OD2      -10.6020    0.9250    2.1700 O.co2  18  ASP18      -0.2456
     15  C         -8.2080    2.7170    0.6050 C.2    18  ASP18       0.2622
     16  O         -8.8830    3.7460    0.5960 O.2    18  ASP18      -0.2715
     17  N         -7.2370    2.5880    1.5090 N.am   19  ILE19      -0.1963
     18  CA        -6.6850    3.7330    2.2780 C.3    19  ILE19       0.1727
     19  CB        -5.7240    3.4190    3.3350 C.3    19  ILE19       0.0290
     20  CG2       -5.2920    4.6760    4.1320 C.3    19  ILE19       0.0023
     21  CG1       -6.1290    2.2320    4.1470 C.3    19  ILE19       0.0022
     22  CD1       -7.3890    2.5360    5.0150 C.3    19  ILE19       0.0001
     23  C         -6.1350    4.7770    1.3490 C.2    19  ILE19       0.2616
     24  O         -6.6840    5.8170    1.2510 O.2    19  ILE19      -0.2715
     25  N         -5.2150    4.3880    0.4740 N.am   20  ILE20      -0.1963
     26  CA        -4.6870    5.2350   -0.7080 C.3    20  ILE20       0.1727
     27  CB        -3.2240    5.7090   -0.5910 C.3    20  ILE20       0.0290
     28  CG2       -3.3440    6.9610    0.1730 C.3    20  ILE20       0.0023
     29  CG1       -2.2390    4.6130   -0.1520 C.3    20  ILE20       0.0022
     30  CD1       -0.7490    4.9910   -0.4640 C.3    20  ILE20       0.0001
     31  C         -5.0040    4.5020   -1.9670 C.2    20  ILE20       0.2617
     32  O         -4.7480    3.3370   -2.0470 O.2    20  ILE20      -0.2715
     33  N         -5.4580    5.1320   -3.0050 N.am   21  TRP21      -0.1941
     34  CA        -5.7310    4.5710   -4.3980 C.3    21  TRP21       0.1982
     35  CB        -7.1080    4.0630   -4.5610 C.3    21  TRP21       0.0394
     36  CG        -8.2250    4.9670   -4.1900 C.3    21  TRP21       0.0475
     37  CD1       -8.7040    5.2340   -2.9610 C.3    21  TRP21       0.1166
     38  NE1       -9.7700    6.1230   -3.0030 N.pl3  21  TRP21      -0.2376
     39  CE2      -10.0000    6.4240   -4.3510 C.ar   21  TRP21       0.0614
     40  CZ2      -10.9360    7.2380   -5.0320 C.ar   21  TRP21       0.0158
     41  CH2      -10.9170    7.4740   -6.4400 C.ar   21  TRP21       0.0013
     42  CZ3       -9.9650    6.7540   -7.1530 C.ar   21  TRP21      -0.0002
     43  CE3       -9.0360    5.8520   -6.5300 C.ar   21  TRP21      -0.0030
     44  CD2       -8.9440    5.8070   -5.1090 C.ar   21  TRP21      -0.0059
     45  C         -5.5270    5.6500   -5.4640 C.2    21  TRP21       0.3842
     46  O         -5.5010    6.8520   -5.0450 O.co2  21  TRP21      -0.2437
     47  OXT       -5.3450    5.3060   -6.6820 O.co2  21  TRP21      -0.2437
@<TRIPOS>BOND
     1    40    41   ar
     2    40    39   ar
     3    41    42   ar
     4    39    38    1
     5    39    44   ar
     6    42    43   ar
     7    38    37    1
     8    43    44   ar
     9    44    36    1
    10    37    36    1
    11    36    35    1
    12    47    45   ar
    13     5     4    1
    14    35    34    1
    15    45    34    1
    16    45    46   ar
    17    34    33    1
    18     8     7    2
    19     4     6    1
    20     4     3    1
    21     2     3    1
    22     2     1    1
    23     2     7    1
    24     7     9   am
    25    33    31   am
    26    32    31    2
    27    31    26    1
    28     9    10    1
    29    10    11    1
    30    10    15    1
    31    26    27    1
    32    26    25    1
    33    11    12    1
    34    13    12   ar
    35    27    29    1
    36    27    28    1
    37    29    30    1
    38    16    15    2
    39    15    17   am
    40    12    14   ar
    41    25    23   am
    42    17    18    1
    43    23    24    2
    44    23    18    1
    45    18    19    1
    46    19    21    1
    47    19    20    1
    48    21    22    1
