@<TRIPOS>MOLECULE
../ET1/ET1_17-21_50CONFORMERS_NOBACKBONE.pdb
 26 23 0 0 0
SMALL
GASTEIGER

@<TRIPOS>ATOM
      1  CB        -6.5650   -1.4580   -0.3110 C.3    17  LEU17       0.0000
      2  CG        -7.7460   -2.4340   -0.5060 C.3    17  LEU17       0.0000
      3  CD1       -7.8580   -3.0370   -1.9450 C.3    17  LEU17       0.0000
      4  CD2       -7.5480   -3.6660    0.4700 C.3    17  LEU17       0.0000
      5  CB        -9.1830    2.2270    1.2540 C.3    18  ASP18       0.1258
      6  CG       -10.1190    3.2280    1.8640 C.2    18  ASP18       0.3654
      7  OD1      -11.1530    3.6680    1.3060 O.co2  18  ASP18      -0.2456
      8  OD2       -9.7570    3.7260    2.9640 O.co2  18  ASP18      -0.2456
      9  CB        -5.0730    4.9940    2.8050 C.3    19  ILE19       0.0000
     10  CG2       -4.3720    6.2200    3.3260 C.3    19  ILE19       0.0000
     11  CG1       -5.9700    4.4790    3.9280 C.3    19  ILE19       0.0000
     12  CD1       -5.1800    3.8570    5.1220 C.3    19  ILE19       0.0000
     13  CB        -2.1460    4.3850   -1.3300 C.3    20  ILE20       0.0000
     14  CG2       -1.2570    4.4980   -2.6400 C.3    20  ILE20       0.0000
     15  CG1       -1.4410    5.1330   -0.1760 C.3    20  ILE20       0.0000
     16  CD1        0.0370    4.7250    0.0590 C.3    20  ILE20       0.0000
     17  CB        -7.2260    3.9060   -3.9570 C.3    21  TRP21       0.0066
     18  CG        -8.0780    3.1360   -4.9220 C.3    21  TRP21       0.0452
     19  CD1       -9.0450    3.6780   -5.6240 C.3    21  TRP21       0.1165
     20  NE1       -9.5590    2.7360   -6.4910 N.pl3  21  TRP21      -0.2376
     21  CE2       -8.9590    1.4790   -6.3190 C.ar   21  TRP21       0.0614
     22  CZ2       -9.1040    0.2160   -6.8210 C.ar   21  TRP21       0.0158
     23  CH2       -8.4150   -0.9370   -6.3400 C.ar   21  TRP21       0.0013
     24  CZ3       -7.4180   -0.6890   -5.3420 C.ar   21  TRP21      -0.0002
     25  CE3       -7.2370    0.6130   -4.8350 C.ar   21  TRP21      -0.0030
     26  CD2       -8.0160    1.7350   -5.2970 C.ar   21  TRP21      -0.0059
@<TRIPOS>BOND
     1    22    23   ar
     2    22    21   ar
     3    23    24   ar
     4    21    20    1
     5    21    26   ar
     6    24    25   ar
     7    20    19    1
     8    25    26   ar
     9    26    18    1
    10    19    18    1
    11    18    17    1
    12     3     2    1
    13     2     4    1
    14     2     1    1
    15     5     6    1
    16     7     6   ar
    17    13    15    1
    18    13    14    1
    19    15    16    1
    20     6     8   ar
    21     9    11    1
    22     9    10    1
    23    11    12    1
@<TRIPOS>MOLECULE
6433095
 41 45 0 0 0
SMALL
GASTEIGER

@<TRIPOS>ATOM
      1 S          -2.7774   -1.3047   -6.3106 S.O2    1  LIG11       0.0908
      2 O          -5.9446   -1.8530   -5.1784 O.3     1  LIG11      -0.4435
      3 O          -7.2027   -1.5350   -2.6433 O.3     1  LIG11      -0.4715
      4 O          -3.7802   -1.5341   -7.3377 O.2     1  LIG11      -0.1484
      5 O          -1.3784   -1.4825   -6.6424 O.2     1  LIG11      -0.1484
      6 O          -7.9015   -2.7068   -6.7444 O.3     1  LIG11      -0.4914
      7 O          -8.1934   -4.2266   -1.9797 O.3     1  LIG11      -0.3917
      8 N          -3.1753   -2.4178   -5.0952 N.pl3   1  LIG11      -0.1950
      9 N          -3.1418   -1.8219   -2.8678 N.ar    1  LIG11      -0.2073
     10 N          -5.1107   -1.3432   -1.6340 N.ar    1  LIG11      -0.1899
     11 N          -2.3975    0.6596   -4.5480 N.ar    1  LIG11      -0.2351
     12 N          -1.5193   -0.7143    1.8166 N.ar    1  LIG11      -0.2552
     13 N           0.9390   -2.1146    2.2764 N.ar    1  LIG11      -0.5621
     14 N           0.8647   -3.0285    0.2097 N.ar    1  LIG11      -0.1535
     15 N           1.9727   -2.9149    1.9954 N.ar    1  LIG11      -0.3597
     16 N           1.9715   -3.4779    0.7833 N.ar    1  LIG11      -0.0878
     17 C          -3.9054   -1.9395   -3.9670 C.ar    1  LIG11       0.1882
     18 C          -5.2690   -1.7256   -4.0004 C.ar    1  LIG11       0.2307
     19 C          -5.8302   -1.5285   -2.7560 C.ar    1  LIG11       0.2641
     20 C          -3.7775   -1.4630   -1.7460 C.ar    1  LIG11       0.1659
     21 C          -3.0105    0.3659   -5.7223 C.ar    1  LIG11       0.1969
     22 C          -2.9847   -1.2002   -0.5376 C.ar    1  LIG11       0.0227
     23 C          -3.7463    1.2695   -6.4740 C.ar    1  LIG11      -0.0160
     24 C          -6.9458   -0.9479   -5.4821 C.ar    1  LIG11       0.1702
     25 C          -1.7277   -1.7889   -0.3327 C.ar    1  LIG11      -0.0252
     26 C          -3.2178    2.9240   -4.7997 C.ar    1  LIG11      -0.0322
     27 C          -3.8500    2.5718   -5.9961 C.ar    1  LIG11      -0.0541
     28 C          -3.4730   -0.3521    0.4676 C.ar    1  LIG11      -0.0328
     29 C          -7.7002   -1.9326   -1.3581 C.3     1  LIG11       0.1143
     30 C          -1.0353   -1.5404    0.8512 C.ar    1  LIG11       0.0708
     31 C          -2.5093    1.9342   -4.1219 C.ar    1  LIG11       0.0327
     32 C          -7.9787   -1.4063   -6.3138 C.ar    1  LIG11       0.1621
     33 C          -6.9421    0.3873   -5.0532 C.ar    1  LIG11      -0.0157
     34 C          -2.7149   -0.1374    1.6030 C.ar    1  LIG11       0.0289
     35 C          -3.2699    4.3204   -4.2646 C.3     1  LIG11      -0.0383
     36 C          -7.4588   -3.4172   -1.0644 C.3     1  LIG11       0.0783
     37 C          -9.0467   -0.5571   -6.6229 C.ar    1  LIG11      -0.0163
     38 C          -8.0025    1.2334   -5.3810 C.ar    1  LIG11      -0.0581
     39 C          -9.0593    0.7577   -6.1526 C.ar    1  LIG11      -0.0581
     40 C           0.2445   -2.2002    1.1232 C.ar    1  LIG11       0.0207
     41 C          -8.4161   -2.9330   -8.0527 C.3     1  LIG11       0.0790
@<TRIPOS>BOND
     1     1     4    2
     2     1     5    2
     3     1     8    1
     4     1    21    1
     5     2    18    1
     6     2    24    1
     7     3    19    1
     8     3    29    1
     9     6    32    1
    10     6    41    1
    11     7    36    1
    12     8    17    1
    13     9    17   ar
    14     9    20   ar
    15    10    19   ar
    16    10    20   ar
    17    11    21   ar
    18    11    31   ar
    19    12    30   ar
    20    12    34   ar
    21    13    15   ar
    22    13    40   ar
    23    14    16   ar
    24    14    40   ar
    25    15    16   ar
    26    17    18   ar
    27    18    19   ar
    28    20    22    1
    29    21    23   ar
    30    22    25   ar
    31    22    28   ar
    32    23    27   ar
    33    24    32   ar
    34    24    33   ar
    35    25    30   ar
    36    26    27   ar
    37    26    31   ar
    38    26    35    1
    39    28    34   ar
    40    29    36    1
    41    30    40    1
    42    32    37   ar
    43    33    38   ar
    44    37    39   ar
    45    38    39   ar
@<TRIPOS>MOLECULE
../ET1/ET1_17-21_50CONFORMERS.pdb
 47 48 0 0 0
SMALL
GASTEIGER

@<TRIPOS>ATOM
      1  N         -5.1240    0.2200   -1.1680 N.3    17  LEU17      -0.1231
      2  CA        -6.4290   -0.3520   -1.3470 C.3    17  LEU17       0.1693
      3  CB        -6.5650   -1.4580   -0.3110 C.3    17  LEU17       0.0284
      4  CG        -7.7460   -2.4340   -0.5060 C.3    17  LEU17       0.0019
      5  CD1       -7.8580   -3.0370   -1.9450 C.3    17  LEU17       0.0001
      6  CD2       -7.5480   -3.6660    0.4700 C.3    17  LEU17       0.0001
      7  C         -7.5570    0.7230   -1.1910 C.2    17  LEU17       0.2592
      8  O         -8.5080    0.5920   -1.9290 O.2    17  LEU17      -0.2718
      9  N         -7.3530    1.6930   -0.3160 N.am   18  ASP18      -0.1960
     10  CA        -8.3710    2.6970    0.0290 C.3    18  ASP18       0.1840
     11  CB        -9.1830    2.2270    1.2540 C.3    18  ASP18       0.1450
     12  CG       -10.1190    3.2280    1.8640 C.2    18  ASP18       0.3671
     13  OD1      -11.1530    3.6680    1.3060 O.co2  18  ASP18      -0.2456
     14  OD2       -9.7570    3.7260    2.9640 O.co2  18  ASP18      -0.2456
     15  C         -7.6950    4.0470    0.2940 C.2    18  ASP18       0.2622
     16  O         -8.1320    5.0650   -0.2880 O.2    18  ASP18      -0.2715
     17  N         -6.7180    4.0860    1.1840 N.am   19  ILE19      -0.1963
     18  CA        -5.9940    5.2620    1.5960 C.3    19  ILE19       0.1727
     19  CB        -5.0730    4.9940    2.8050 C.3    19  ILE19       0.0290
     20  CG2       -4.3720    6.2200    3.3260 C.3    19  ILE19       0.0023
     21  CG1       -5.9700    4.4790    3.9280 C.3    19  ILE19       0.0022
     22  CD1       -5.1800    3.8570    5.1220 C.3    19  ILE19       0.0001
     23  C         -5.0600    5.7250    0.4830 C.2    19  ILE19       0.2616
     24  O         -4.9460    6.9140    0.1610 O.2    19  ILE19      -0.2715
     25  N         -4.3130    4.7870   -0.1330 N.am   20  ILE20      -0.1963
     26  CA        -3.5800    4.9710   -1.3970 C.3    20  ILE20       0.1727
     27  CB        -2.1460    4.3850   -1.3300 C.3    20  ILE20       0.0290
     28  CG2       -1.2570    4.4980   -2.6400 C.3    20  ILE20       0.0023
     29  CG1       -1.4410    5.1330   -0.1760 C.3    20  ILE20       0.0022
     30  CD1        0.0370    4.7250    0.0590 C.3    20  ILE20       0.0001
     31  C         -4.3770    4.3220   -2.4840 C.2    20  ILE20       0.2617
     32  O         -4.3780    3.0980   -2.4750 O.2    20  ILE20      -0.2715
     33  N         -5.1280    5.0160   -3.3140 N.am   21  TRP21      -0.1941
     34  CA        -5.8240    4.4130   -4.4310 C.3    21  TRP21       0.1982
     35  CB        -7.2260    3.9060   -3.9570 C.3    21  TRP21       0.0394
     36  CG        -8.0780    3.1360   -4.9220 C.3    21  TRP21       0.0475
     37  CD1       -9.0450    3.6780   -5.6240 C.3    21  TRP21       0.1166
     38  NE1       -9.5590    2.7360   -6.4910 N.pl3  21  TRP21      -0.2376
     39  CE2       -8.9590    1.4790   -6.3190 C.ar   21  TRP21       0.0614
     40  CZ2       -9.1040    0.2160   -6.8210 C.ar   21  TRP21       0.0158
     41  CH2       -8.4150   -0.9370   -6.3400 C.ar   21  TRP21       0.0013
     42  CZ3       -7.4180   -0.6890   -5.3420 C.ar   21  TRP21      -0.0002
     43  CE3       -7.2370    0.6130   -4.8350 C.ar   21  TRP21      -0.0030
     44  CD2       -8.0160    1.7350   -5.2970 C.ar   21  TRP21      -0.0059
     45  C         -5.8960    5.3640   -5.6200 C.2    21  TRP21       0.3842
     46  O         -5.4660    5.0720   -6.7740 O.co2  21  TRP21      -0.2437
     47  OXT       -6.0980    6.5780   -5.4070 O.co2  21  TRP21      -0.2437
@<TRIPOS>BOND
     1    40    41   ar
     2    40    39   ar
     3    41    42   ar
     4    39    38    1
     5    39    44   ar
     6    42    43   ar
     7    38    37    1
     8    43    44   ar
     9    44    36    1
    10    37    36    1
    11    36    35    1
    12    47    45   ar
    13     5     4    1
    14    35    34    1
    15    45    34    1
    16    45    46   ar
    17    34    33    1
    18     8     7    2
    19     4     6    1
    20     4     3    1
    21     2     3    1
    22     2     1    1
    23     2     7    1
    24     7     9   am
    25    33    31   am
    26    32    31    2
    27    31    26    1
    28     9    10    1
    29    10    11    1
    30    10    15    1
    31    26    27    1
    32    26    25    1
    33    11    12    1
    34    13    12   ar
    35    27    29    1
    36    27    28    1
    37    29    30    1
    38    16    15    2
    39    15    17   am
    40    12    14   ar
    41    25    23   am
    42    17    18    1
    43    23    24    2
    44    23    18    1
    45    18    19    1
    46    19    21    1
    47    19    20    1
    48    21    22    1
