@<TRIPOS>MOLECULE
../ET1/ET1_17-21_50CONFORMERS_NOBACKBONE.pdb
 26 23 0 0 0
SMALL
GASTEIGER

@<TRIPOS>ATOM
      1  CB        -5.8570   -2.2150   -2.0310 C.3    17  LEU17       0.0000
      2  CG        -7.1220   -3.0210   -2.1490 C.3    17  LEU17       0.0000
      3  CD1       -7.7280   -3.0350   -3.5420 C.3    17  LEU17       0.0000
      4  CD2       -6.9000   -4.4680   -1.7520 C.3    17  LEU17       0.0000
      5  CB        -8.7560   -0.4860    1.0510 C.3    18  ASP18       0.1258
      6  CG       -10.1520   -0.2260    1.6910 C.2    18  ASP18       0.3654
      7  OD1      -10.3840   -0.3710    2.8940 O.co2  18  ASP18      -0.2456
      8  OD2      -11.1020    0.0550    0.8740 O.co2  18  ASP18      -0.2456
      9  CB        -5.5970    3.3000    3.4360 C.3    19  ILE19       0.0000
     10  CG2       -5.5760    4.4860    4.4030 C.3    19  ILE19       0.0000
     11  CG1       -5.6310    1.9200    4.0640 C.3    19  ILE19       0.0000
     12  CD1       -6.9900    1.6050    4.6860 C.3    19  ILE19       0.0000
     13  CB        -3.4320    5.7300   -0.4270 C.3    20  ILE20       0.0000
     14  CG2       -3.5820    6.5440    0.8320 C.3    20  ILE20       0.0000
     15  CG1       -2.2450    4.7640   -0.5120 C.3    20  ILE20       0.0000
     16  CD1       -0.8400    5.4520   -0.3980 C.3    20  ILE20       0.0000
     17  CB        -7.5990    5.4430   -4.2460 C.3    21  TRP21       0.0066
     18  CG        -8.3150    5.3080   -2.9810 C.3    21  TRP21       0.0452
     19  CD1       -8.5790    4.1850   -2.2770 C.3    21  TRP21       0.1165
     20  NE1       -9.1050    4.4920   -1.0680 N.pl3  21  TRP21      -0.2376
     21  CE2       -9.3070    5.8840   -0.9700 C.ar   21  TRP21       0.0614
     22  CZ2       -9.7230    6.6990    0.0780 C.ar   21  TRP21       0.0158
     23  CH2       -9.7040    8.1030    0.0120 C.ar   21  TRP21       0.0013
     24  CZ3       -9.2660    8.6890   -1.2230 C.ar   21  TRP21      -0.0002
     25  CE3       -8.7230    7.8520   -2.2560 C.ar   21  TRP21      -0.0030
     26  CD2       -8.7940    6.4290   -2.1750 C.ar   21  TRP21      -0.0059
@<TRIPOS>BOND
     1    22    23   ar
     2    22    21   ar
     3    23    24   ar
     4    21    20    1
     5    21    26   ar
     6    24    25   ar
     7    20    19    1
     8    25    26   ar
     9    26    18    1
    10    19    18    1
    11    18    17    1
    12     3     2    1
    13     2     4    1
    14     2     1    1
    15     5     6    1
    16     7     6   ar
    17    13    15    1
    18    13    14    1
    19    15    16    1
    20     6     8   ar
    21     9    11    1
    22     9    10    1
    23    11    12    1
@<TRIPOS>MOLECULE
159594
 37 40 0 0 0
SMALL
GASTEIGER

@<TRIPOS>ATOM
      1 O          -5.9618    5.0664   -4.4559 O.co2   1  LIG11      -0.5493
      2 O          -7.7261    4.2013   -5.6202 O.co2   1  LIG11      -0.5493
      3 O          -9.1821   10.4249   -0.7338 O.3     1  LIG11      -0.4526
      4 O          -7.0529    4.2574    1.4378 O.2     1  LIG11      -0.2697
      5 O         -11.3311    9.5499   -0.0759 O.3     1  LIG11      -0.4526
      6 O         -11.0424   -0.8799   -2.7177 O.3     1  LIG11      -0.4951
      7 N          -7.1874    4.1739   -1.2922 N.3     1  LIG11       0.2481
      8 N          -4.8533    3.5635    1.5704 N.am    1  LIG11      -0.2971
      9 C          -8.0589    4.9043   -3.4074 C.3     1  LIG11       0.0574
     10 C          -7.6141    6.1327   -2.6058 C.3     1  LIG11       0.0378
     11 C          -7.5725    3.6565   -2.6678 C.3     1  LIG11       0.0143
     12 C          -6.6530    5.5639   -1.5636 C.3     1  LIG11      -0.0230
     13 C          -8.6910    6.9679   -1.9270 C.ar    1  LIG11      -0.0347
     14 C          -8.5446    2.4891   -2.6677 C.ar    1  LIG11       0.0011
     15 C          -6.1954    3.2961   -0.5595 C.3     1  LIG11       0.0468
     16 C          -7.1723    4.7428   -4.6350 C.2     1  LIG11       0.0513
     17 C          -8.3840    8.3209   -1.6632 C.ar    1  LIG11      -0.0125
     18 C          -6.0627    3.7443    0.9041 C.2     1  LIG11       0.2608
     19 C          -9.9494    6.4662   -1.5323 C.ar    1  LIG11      -0.0544
     20 C          -8.4336    1.5532   -3.7142 C.ar    1  LIG11      -0.0498
     21 C          -9.5351    2.2771   -1.7022 C.ar    1  LIG11      -0.0498
     22 C          -9.3269    9.1092   -1.0412 C.ar    1  LIG11       0.1665
     23 C         -10.8863    7.2923   -0.8954 C.ar    1  LIG11      -0.0159
     24 C         -10.5467    8.6093   -0.6665 C.ar    1  LIG11       0.1662
     25 C          -9.2464    0.4182   -3.7739 C.ar    1  LIG11      -0.0195
     26 C         -10.3493    1.1369   -1.7656 C.ar    1  LIG11      -0.0195
     27 C          -4.7408    4.0703    2.9455 C.3     1  LIG11       0.0148
     28 C          -3.5825    3.3533    0.8620 C.3     1  LIG11       0.0148
     29 C         -10.2005    0.1956   -2.7879 C.ar    1  LIG11       0.1201
     30 C          -5.6679    3.4060    3.9694 C.3     1  LIG11      -0.0374
     31 C          -3.0001    4.6836    0.3742 C.3     1  LIG11      -0.0374
     32 C         -10.4782   10.7117   -0.1695 C.3     1  LIG11       0.2332
     33 C          -5.5134    1.8868    4.0318 C.3     1  LIG11      -0.0545
     34 C          -1.7669    4.4873   -0.5032 C.3     1  LIG11      -0.0545
     35 C          -6.4110    1.2920    5.1068 C.3     1  LIG11      -0.0652
     36 C          -1.1479    5.8239   -0.8850 C.3     1  LIG11      -0.0652
     37 C         -10.8369   -1.9133   -3.6760 C.3     1  LIG11       0.0788
@<TRIPOS>BOND
     1     1    16   ar
     2     2    16   ar
     3     3    22    1
     4     3    32    1
     5     4    18    2
     6     5    24    1
     7     5    32    1
     8     6    29    1
     9     6    37    1
    10     7    11    1
    11     7    12    1
    12     7    15    1
    13     8    18   am
    14     8    27    1
    15     8    28    1
    16     9    10    1
    17     9    11    1
    18     9    16    1
    19    10    12    1
    20    10    13    1
    21    11    14    1
    22    13    17   ar
    23    13    19   ar
    24    14    20   ar
    25    14    21   ar
    26    15    18    1
    27    17    22   ar
    28    19    23   ar
    29    20    25   ar
    30    21    26   ar
    31    22    24   ar
    32    23    24   ar
    33    25    29   ar
    34    26    29   ar
    35    27    30    1
    36    28    31    1
    37    30    33    1
    38    31    34    1
    39    33    35    1
    40    34    36    1
@<TRIPOS>MOLECULE
../ET1/ET1_17-21_50CONFORMERS.pdb
 47 48 0 0 0
SMALL
GASTEIGER

@<TRIPOS>ATOM
      1  N         -4.6840   -0.0060   -2.1720 N.3    17  LEU17      -0.1231
      2  CA        -5.8870   -0.7440   -2.4980 C.3    17  LEU17       0.1693
      3  CB        -5.8570   -2.2150   -2.0310 C.3    17  LEU17       0.0284
      4  CG        -7.1220   -3.0210   -2.1490 C.3    17  LEU17       0.0019
      5  CD1       -7.7280   -3.0350   -3.5420 C.3    17  LEU17       0.0001
      6  CD2       -6.9000   -4.4680   -1.7520 C.3    17  LEU17       0.0001
      7  C         -7.0570    0.0540   -1.9340 C.2    17  LEU17       0.2592
      8  O         -7.8360    0.5790   -2.7440 O.2    17  LEU17      -0.2718
      9  N         -7.1000    0.2360   -0.5980 N.am   18  ASP18      -0.1960
     10  CA        -8.2720    0.6250    0.1430 C.3    18  ASP18       0.1840
     11  CB        -8.7560   -0.4860    1.0510 C.3    18  ASP18       0.1450
     12  CG       -10.1520   -0.2260    1.6910 C.2    18  ASP18       0.3671
     13  OD1      -10.3840   -0.3710    2.8940 O.co2  18  ASP18      -0.2456
     14  OD2      -11.1020    0.0550    0.8740 O.co2  18  ASP18      -0.2456
     15  C         -8.1150    1.9270    0.9350 C.2    18  ASP18       0.2622
     16  O         -9.0890    2.6460    1.0180 O.2    18  ASP18      -0.2715
     17  N         -6.9720    2.2590    1.5880 N.am   19  ILE19      -0.1963
     18  CA        -6.7050    3.5300    2.3160 C.3    19  ILE19       0.1727
     19  CB        -5.5970    3.3000    3.4360 C.3    19  ILE19       0.0290
     20  CG2       -5.5760    4.4860    4.4030 C.3    19  ILE19       0.0023
     21  CG1       -5.6310    1.9200    4.0640 C.3    19  ILE19       0.0022
     22  CD1       -6.9900    1.6050    4.6860 C.3    19  ILE19       0.0001
     23  C         -6.2780    4.6150    1.3600 C.2    19  ILE19       0.2616
     24  O         -6.6470    5.7730    1.4780 O.2    19  ILE19      -0.2715
     25  N         -5.3290    4.3190    0.4560 N.am   20  ILE20      -0.1963
     26  CA        -4.8630    5.1710   -0.6440 C.3    20  ILE20       0.1727
     27  CB        -3.4320    5.7300   -0.4270 C.3    20  ILE20       0.0290
     28  CG2       -3.5820    6.5440    0.8320 C.3    20  ILE20       0.0023
     29  CG1       -2.2450    4.7640   -0.5120 C.3    20  ILE20       0.0022
     30  CD1       -0.8400    5.4520   -0.3980 C.3    20  ILE20       0.0001
     31  C         -5.1990    4.4560   -1.9450 C.2    20  ILE20       0.2617
     32  O         -5.2380    3.2640   -2.0470 O.2    20  ILE20      -0.2715
     33  N         -5.4510    5.3440   -2.9640 N.am   21  TRP21      -0.1941
     34  CA        -6.1270    5.1130   -4.2700 C.3    21  TRP21       0.1982
     35  CB        -7.5990    5.4430   -4.2460 C.3    21  TRP21       0.0394
     36  CG        -8.3150    5.3080   -2.9810 C.3    21  TRP21       0.0475
     37  CD1       -8.5790    4.1850   -2.2770 C.3    21  TRP21       0.1166
     38  NE1       -9.1050    4.4920   -1.0680 N.pl3  21  TRP21      -0.2376
     39  CE2       -9.3070    5.8840   -0.9700 C.ar   21  TRP21       0.0614
     40  CZ2       -9.7230    6.6990    0.0780 C.ar   21  TRP21       0.0158
     41  CH2       -9.7040    8.1030    0.0120 C.ar   21  TRP21       0.0013
     42  CZ3       -9.2660    8.6890   -1.2230 C.ar   21  TRP21      -0.0002
     43  CE3       -8.7230    7.8520   -2.2560 C.ar   21  TRP21      -0.0030
     44  CD2       -8.7940    6.4290   -2.1750 C.ar   21  TRP21      -0.0059
     45  C         -5.4490    5.7100   -5.5300 C.2    21  TRP21       0.3842
     46  O         -4.6150    6.6320   -5.3360 O.co2  21  TRP21      -0.2437
     47  OXT       -5.6400    5.2380   -6.6790 O.co2  21  TRP21      -0.2437
@<TRIPOS>BOND
     1    40    41   ar
     2    40    39   ar
     3    41    42   ar
     4    39    38    1
     5    39    44   ar
     6    42    43   ar
     7    38    37    1
     8    43    44   ar
     9    44    36    1
    10    37    36    1
    11    36    35    1
    12    47    45   ar
    13     5     4    1
    14    35    34    1
    15    45    34    1
    16    45    46   ar
    17    34    33    1
    18     8     7    2
    19     4     6    1
    20     4     3    1
    21     2     3    1
    22     2     1    1
    23     2     7    1
    24     7     9   am
    25    33    31   am
    26    32    31    2
    27    31    26    1
    28     9    10    1
    29    10    11    1
    30    10    15    1
    31    26    27    1
    32    26    25    1
    33    11    12    1
    34    13    12   ar
    35    27    29    1
    36    27    28    1
    37    29    30    1
    38    16    15    2
    39    15    17   am
    40    12    14   ar
    41    25    23   am
    42    17    18    1
    43    23    24    2
    44    23    18    1
    45    18    19    1
    46    19    21    1
    47    19    20    1
    48    21    22    1
