@<TRIPOS>MOLECULE
../ET1/ET1_17-21_50CONFORMERS_NOBACKBONE.pdb
 26 23 0 0 0
SMALL
GASTEIGER

@<TRIPOS>ATOM
      1  CB        -6.8980   -2.1280   -1.2680 C.3    17  LEU17       0.0000
      2  CG        -8.1640   -2.8730   -1.7710 C.3    17  LEU17       0.0000
      3  CD1       -8.0740   -3.1810   -3.2580 C.3    17  LEU17       0.0000
      4  CD2       -8.4050   -4.1840   -0.9770 C.3    17  LEU17       0.0000
      5  CB        -9.9720    0.7540    0.9230 C.3    18  ASP18       0.1258
      6  CG       -11.0880    1.6940    1.4170 C.2    18  ASP18       0.3654
      7  OD1      -11.8290    2.2550    0.6360 O.co2  18  ASP18      -0.2456
      8  OD2      -11.2930    1.7480    2.6750 O.co2  18  ASP18      -0.2456
      9  CB        -5.5350    3.1570    3.4290 C.3    19  ILE19       0.0000
     10  CG2       -4.9350    4.2530    4.3350 C.3    19  ILE19       0.0000
     11  CG1       -6.2270    2.1840    4.3560 C.3    19  ILE19       0.0000
     12  CD1       -7.2410    2.6480    5.4570 C.3    19  ILE19       0.0000
     13  CB        -3.2460    5.6920   -0.4630 C.3    20  ILE20       0.0000
     14  CG2       -3.0130    6.2240    0.9320 C.3    20  ILE20       0.0000
     15  CG1       -2.4170    4.4290   -0.6100 C.3    20  ILE20       0.0000
     16  CD1       -0.9050    4.5330   -0.5210 C.3    20  ILE20       0.0000
     17  CB        -6.4030    6.6360   -4.9390 C.3    21  TRP21       0.0066
     18  CG        -7.5670    6.0040   -4.2330 C.3    21  TRP21       0.0452
     19  CD1       -8.1070    6.4780   -3.0840 C.3    21  TRP21       0.1165
     20  NE1       -9.1370    5.6500   -2.6460 N.pl3  21  TRP21      -0.2376
     21  CE2       -9.1920    4.4550   -3.3730 C.ar   21  TRP21       0.0614
     22  CZ2      -10.0470    3.3490   -3.3650 C.ar   21  TRP21       0.0158
     23  CH2       -9.9760    2.4460   -4.4430 C.ar   21  TRP21       0.0013
     24  CZ3       -9.1350    2.7470   -5.4940 C.ar   21  TRP21      -0.0002
     25  CE3       -8.2410    3.7610   -5.4190 C.ar   21  TRP21      -0.0030
     26  CD2       -8.2890    4.6970   -4.3670 C.ar   21  TRP21      -0.0059
@<TRIPOS>BOND
     1    22    23   ar
     2    22    21   ar
     3    23    24   ar
     4    21    20    1
     5    21    26   ar
     6    24    25   ar
     7    20    19    1
     8    25    26   ar
     9    26    18    1
    10    19    18    1
    11    18    17    1
    12     3     2    1
    13     2     4    1
    14     2     1    1
    15     5     6    1
    16     7     6   ar
    17    13    15    1
    18    13    14    1
    19    15    16    1
    20     6     8   ar
    21     9    11    1
    22     9    10    1
    23    11    12    1
@<TRIPOS>MOLECULE
159594
 37 40 0 0 0
SMALL
GASTEIGER

@<TRIPOS>ATOM
      1 O          -5.6389    7.6956   -4.1739 O.co2   1  LIG11      -0.5493
      2 O          -7.4705    9.0251   -4.4813 O.co2   1  LIG11      -0.5493
      3 O          -8.2621    1.1745   -6.0537 O.3     1  LIG11      -0.4526
      4 O          -6.9431    3.7224    0.1958 O.2     1  LIG11      -0.2697
      5 O         -10.5147    1.1152   -5.1942 O.3     1  LIG11      -0.4526
      6 O         -11.4391    9.9603    0.8682 O.3     1  LIG11      -0.4951
      7 N          -7.0297    5.8222   -1.5540 N.3     1  LIG11       0.2481
      8 N          -4.8474    4.2193    1.0312 N.am    1  LIG11      -0.2971
      9 C          -7.7617    6.8782   -3.5828 C.3     1  LIG11       0.0574
     10 C          -7.1879    5.4983   -3.9235 C.3     1  LIG11       0.0378
     11 C          -7.4459    7.1714   -2.1148 C.3     1  LIG11       0.0143
     12 C          -6.3250    5.1492   -2.7124 C.3     1  LIG11      -0.0230
     13 C          -8.1694    4.3707   -4.2120 C.ar    1  LIG11      -0.0347
     14 C          -8.5524    7.8743   -1.3470 C.ar    1  LIG11       0.0011
     15 C          -6.1672    5.9104   -0.3132 C.3     1  LIG11       0.0468
     16 C          -6.8758    7.9646   -4.1779 C.2     1  LIG11       0.0513
     17 C          -7.7060    3.3048   -5.0142 C.ar    1  LIG11      -0.0125
     18 C          -6.0116    4.5241    0.3306 C.2     1  LIG11       0.2608
     19 C          -9.4874    4.3217   -3.7104 C.ar    1  LIG11      -0.0544
     20 C          -8.5339    9.2823   -1.3271 C.ar    1  LIG11      -0.0498
     21 C          -9.5813    7.2232   -0.6572 C.ar    1  LIG11      -0.0498
     22 C          -8.5590    2.2592   -5.2910 C.ar    1  LIG11       0.1665
     23 C         -10.3302    3.2407   -4.0049 C.ar    1  LIG11      -0.0159
     24 C          -9.8380    2.2267   -4.7998 C.ar    1  LIG11       0.1662
     25 C          -9.4771   10.0191   -0.6060 C.ar    1  LIG11      -0.0195
     26 C         -10.5263    7.9662    0.0652 C.ar    1  LIG11      -0.0195
     27 C          -4.7029    2.8598    1.5710 C.3     1  LIG11       0.0148
     28 C          -3.5969    4.9718    0.8548 C.3     1  LIG11       0.0148
     29 C         -10.4716    9.3621    0.1089 C.ar    1  LIG11       0.1201
     30 C          -5.7250    2.4655    2.6429 C.3     1  LIG11      -0.0374
     31 C          -2.8472    4.5038   -0.3966 C.3     1  LIG11      -0.0374
     32 C          -9.5253    0.4786   -6.0319 C.3     1  LIG11       0.2332
     33 C          -5.7574    3.4248    3.8322 C.3     1  LIG11      -0.0545
     34 C          -1.6289    5.3720   -0.6987 C.3     1  LIG11      -0.0545
     35 C          -6.7428    2.9483    4.8892 C.3     1  LIG11      -0.0652
     36 C          -0.8445    4.8226   -1.8811 C.3     1  LIG11      -0.0652
     37 C         -11.3405   11.3721    1.0287 C.3     1  LIG11       0.0788
@<TRIPOS>BOND
     1     1    16   ar
     2     2    16   ar
     3     3    22    1
     4     3    32    1
     5     4    18    2
     6     5    24    1
     7     5    32    1
     8     6    29    1
     9     6    37    1
    10     7    11    1
    11     7    12    1
    12     7    15    1
    13     8    18   am
    14     8    27    1
    15     8    28    1
    16     9    10    1
    17     9    11    1
    18     9    16    1
    19    10    12    1
    20    10    13    1
    21    11    14    1
    22    13    17   ar
    23    13    19   ar
    24    14    20   ar
    25    14    21   ar
    26    15    18    1
    27    17    22   ar
    28    19    23   ar
    29    20    25   ar
    30    21    26   ar
    31    22    24   ar
    32    23    24   ar
    33    25    29   ar
    34    26    29   ar
    35    27    30    1
    36    28    31    1
    37    30    33    1
    38    31    34    1
    39    33    35    1
    40    34    36    1
@<TRIPOS>MOLECULE
../ET1/ET1_17-21_50CONFORMERS.pdb
 47 48 0 0 0
SMALL
GASTEIGER

@<TRIPOS>ATOM
      1  N         -5.4310   -0.0720   -1.3630 N.3    17  LEU17      -0.1231
      2  CA        -6.6840   -0.6750   -1.8500 C.3    17  LEU17       0.1693
      3  CB        -6.8980   -2.1280   -1.2680 C.3    17  LEU17       0.0284
      4  CG        -8.1640   -2.8730   -1.7710 C.3    17  LEU17       0.0019
      5  CD1       -8.0740   -3.1810   -3.2580 C.3    17  LEU17       0.0001
      6  CD2       -8.4050   -4.1840   -0.9770 C.3    17  LEU17       0.0001
      7  C         -7.8440    0.2660   -1.5210 C.2    17  LEU17       0.2592
      8  O         -8.6730    0.5560   -2.3370 O.2    17  LEU17      -0.2718
      9  N         -7.8870    0.6840   -0.3140 N.am   18  ASP18      -0.1960
     10  CA        -8.8950    1.6140    0.1630 C.3    18  ASP18       0.1840
     11  CB        -9.9720    0.7540    0.9230 C.3    18  ASP18       0.1450
     12  CG       -11.0880    1.6940    1.4170 C.2    18  ASP18       0.3671
     13  OD1      -11.8290    2.2550    0.6360 O.co2  18  ASP18      -0.2456
     14  OD2      -11.2930    1.7480    2.6750 O.co2  18  ASP18      -0.2456
     15  C         -8.3780    2.8340    0.9880 C.2    18  ASP18       0.2622
     16  O         -8.9170    3.9280    1.0090 O.2    18  ASP18      -0.2715
     17  N         -7.1920    2.6000    1.6560 N.am   19  ILE19      -0.1963
     18  CA        -6.5640    3.6920    2.3840 C.3    19  ILE19       0.1727
     19  CB        -5.5350    3.1570    3.4290 C.3    19  ILE19       0.0290
     20  CG2       -4.9350    4.2530    4.3350 C.3    19  ILE19       0.0023
     21  CG1       -6.2270    2.1840    4.3560 C.3    19  ILE19       0.0022
     22  CD1       -7.2410    2.6480    5.4570 C.3    19  ILE19       0.0001
     23  C         -5.9480    4.7470    1.4420 C.2    19  ILE19       0.2616
     24  O         -6.0440    5.9240    1.7900 O.2    19  ILE19      -0.2715
     25  N         -5.3690    4.4450    0.2810 N.am   20  ILE20      -0.1963
     26  CA        -4.7490    5.5160   -0.6280 C.3    20  ILE20       0.1727
     27  CB        -3.2460    5.6920   -0.4630 C.3    20  ILE20       0.0290
     28  CG2       -3.0130    6.2240    0.9320 C.3    20  ILE20       0.0023
     29  CG1       -2.4170    4.4290   -0.6100 C.3    20  ILE20       0.0022
     30  CD1       -0.9050    4.5330   -0.5210 C.3    20  ILE20       0.0001
     31  C         -5.1140    5.2400   -2.0760 C.2    20  ILE20       0.2617
     32  O         -5.5940    4.1460   -2.3940 O.2    20  ILE20      -0.2715
     33  N         -4.8180    6.1280   -3.0580 N.am   21  TRP21      -0.1941
     34  CA        -5.0610    5.9900   -4.5210 C.3    21  TRP21       0.1982
     35  CB        -6.4030    6.6360   -4.9390 C.3    21  TRP21       0.0394
     36  CG        -7.5670    6.0040   -4.2330 C.3    21  TRP21       0.0475
     37  CD1       -8.1070    6.4780   -3.0840 C.3    21  TRP21       0.1166
     38  NE1       -9.1370    5.6500   -2.6460 N.pl3  21  TRP21      -0.2376
     39  CE2       -9.1920    4.4550   -3.3730 C.ar   21  TRP21       0.0614
     40  CZ2      -10.0470    3.3490   -3.3650 C.ar   21  TRP21       0.0158
     41  CH2       -9.9760    2.4460   -4.4430 C.ar   21  TRP21       0.0013
     42  CZ3       -9.1350    2.7470   -5.4940 C.ar   21  TRP21      -0.0002
     43  CE3       -8.2410    3.7610   -5.4190 C.ar   21  TRP21      -0.0030
     44  CD2       -8.2890    4.6970   -4.3670 C.ar   21  TRP21      -0.0059
     45  C         -3.9140    6.5840   -5.4160 C.2    21  TRP21       0.3842
     46  O         -3.3530    7.6760   -5.1620 O.co2  21  TRP21      -0.2437
     47  OXT       -3.4650    5.8790   -6.3210 O.co2  21  TRP21      -0.2437
@<TRIPOS>BOND
     1    40    41   ar
     2    40    39   ar
     3    41    42   ar
     4    39    38    1
     5    39    44   ar
     6    42    43   ar
     7    38    37    1
     8    43    44   ar
     9    44    36    1
    10    37    36    1
    11    36    35    1
    12    47    45   ar
    13     5     4    1
    14    35    34    1
    15    45    34    1
    16    45    46   ar
    17    34    33    1
    18     8     7    2
    19     4     6    1
    20     4     3    1
    21     2     3    1
    22     2     1    1
    23     2     7    1
    24     7     9   am
    25    33    31   am
    26    32    31    2
    27    31    26    1
    28     9    10    1
    29    10    11    1
    30    10    15    1
    31    26    27    1
    32    26    25    1
    33    11    12    1
    34    13    12   ar
    35    27    29    1
    36    27    28    1
    37    29    30    1
    38    16    15    2
    39    15    17   am
    40    12    14   ar
    41    25    23   am
    42    17    18    1
    43    23    24    2
    44    23    18    1
    45    18    19    1
    46    19    21    1
    47    19    20    1
    48    21    22    1
