@<TRIPOS>MOLECULE
../ET1/ET1_17-21_50CONFORMERS_NOBACKBONE.pdb
 26 23 0 0 0
SMALL
GASTEIGER

@<TRIPOS>ATOM
      1  CB        -6.0760   -1.7180   -1.5760 C.3    17  LEU17       0.0000
      2  CG        -7.3110   -2.5820   -1.9470 C.3    17  LEU17       0.0000
      3  CD1       -6.9390   -3.2580   -3.2630 C.3    17  LEU17       0.0000
      4  CD2       -7.7350   -3.6450   -0.9830 C.3    17  LEU17       0.0000
      5  CB        -9.4600    0.6200    0.3120 C.3    18  ASP18       0.1258
      6  CG       -10.8310    1.1150    0.8640 C.2    18  ASP18       0.3654
      7  OD1      -11.8750    0.6760    0.3220 O.co2  18  ASP18      -0.2456
      8  OD2      -10.9420    1.8120    1.8850 O.co2  18  ASP18      -0.2456
      9  CB        -5.8310    3.1830    3.2140 C.3    19  ILE19       0.0000
     10  CG2       -5.2210    4.3700    4.0780 C.3    19  ILE19       0.0000
     11  CG1       -6.5890    2.1450    4.0960 C.3    19  ILE19       0.0000
     12  CD1       -7.7320    2.6430    4.9740 C.3    19  ILE19       0.0000
     13  CB        -3.2350    5.6430   -0.5900 C.3    20  ILE20       0.0000
     14  CG2       -3.1020    6.4660    0.6790 C.3    20  ILE20       0.0000
     15  CG1       -2.3060    4.4540   -0.7430 C.3    20  ILE20       0.0000
     16  CD1       -0.8980    4.8160   -0.4210 C.3    20  ILE20       0.0000
     17  CB        -6.6430    4.4220   -4.8850 C.3    21  TRP21       0.0066
     18  CG        -6.7540    3.5400   -6.0910 C.3    21  TRP21       0.0452
     19  CD1       -6.3480    2.2620   -6.1710 C.3    21  TRP21       0.1165
     20  NE1       -6.6350    1.6980   -7.4270 N.pl3  21  TRP21      -0.2376
     21  CE2       -7.4160    2.5970   -8.1310 C.ar   21  TRP21       0.0614
     22  CZ2       -7.9590    2.5090   -9.4120 C.ar   21  TRP21       0.0158
     23  CH2       -8.6650    3.6450   -9.9300 C.ar   21  TRP21       0.0013
     24  CZ3       -8.6550    4.8890   -9.1660 C.ar   21  TRP21      -0.0002
     25  CE3       -8.0720    4.9490   -7.9420 C.ar   21  TRP21      -0.0030
     26  CD2       -7.4040    3.8200   -7.3920 C.ar   21  TRP21      -0.0059
@<TRIPOS>BOND
     1    22    23   ar
     2    22    21   ar
     3    23    24   ar
     4    21    20    1
     5    21    26   ar
     6    24    25   ar
     7    20    19    1
     8    25    26   ar
     9    26    18    1
    10    19    18    1
    11    18    17    1
    12     3     2    1
    13     2     4    1
    14     2     1    1
    15     5     6    1
    16     7     6   ar
    17    13    15    1
    18    13    14    1
    19    15    16    1
    20     6     8   ar
    21     9    11    1
    22     9    10    1
    23    11    12    1
@<TRIPOS>MOLECULE
9957262
 35 38 0 0 0
SMALL
GASTEIGER

@<TRIPOS>ATOM
      1 S          -5.6509    2.8978   -3.7643 S.O2    1  LIG11       0.0668
      2 O          -6.8603    1.6334   -0.7024 O.3     1  LIG11      -0.4435
      3 O          -6.7389    2.8263    1.9075 O.3     1  LIG11      -0.4771
      4 O          -4.4599    3.5995   -3.3306 O.2     1  LIG11      -0.1505
      5 O          -5.7005    1.4513   -3.7272 O.2     1  LIG11      -0.1505
      6 O          -8.3007   -0.7653    0.1758 O.3     1  LIG11      -0.4914
      7 N          -6.9794    3.3907   -2.8366 N.pl3   1  LIG11      -0.1968
      8 N          -6.4469    5.1593   -1.4435 N.ar    1  LIG11      -0.2044
      9 N          -6.3008    4.8997    0.9186 N.ar    1  LIG11      -0.1867
     10 N          -5.1238    7.4511    1.0077 N.ar    1  LIG11      -0.2331
     11 N          -6.3658    7.9667   -0.9683 N.ar    1  LIG11      -0.2331
     12 C          -6.6578    3.8386   -1.5228 C.ar    1  LIG11       0.1883
     13 C          -6.6435    2.9629   -0.4547 C.ar    1  LIG11       0.2307
     14 C          -6.5342    3.5833    0.7719 C.ar    1  LIG11       0.2639
     15 C          -6.2770    0.6898    0.1143 C.ar    1  LIG11       0.1702
     16 C          -6.0451    3.4124   -5.3745 C.2     1  LIG11       0.0729
     17 C          -6.2245    5.6472   -0.2060 C.ar    1  LIG11       0.2027
     18 C          -7.0153   -0.4343    0.5126 C.ar    1  LIG11       0.1621
     19 C          -7.2506    3.1090   -5.8804 C.2     1  LIG11      -0.0353
     20 C          -7.6679    3.5146   -7.2210 C.ar    1  LIG11      -0.0237
     21 C          -4.9277    0.8055    0.4958 C.ar    1  LIG11      -0.0157
     22 C          -5.8893    7.0902   -0.0526 C.ar    1  LIG11       0.1978
     23 C          -6.4046   -1.3898    1.3364 C.ar    1  LIG11      -0.0163
     24 C          -4.3454   -0.1393    1.3420 C.ar    1  LIG11      -0.0581
     25 C          -5.0875   -1.2341    1.7698 C.ar    1  LIG11      -0.0581
     26 C          -7.8172    2.5452   -8.2180 C.ar    1  LIG11      -0.0546
     27 C          -7.9647    4.8514   -7.5084 C.ar    1  LIG11      -0.0546
     28 C          -8.2572    2.9092   -9.4920 C.ar    1  LIG11      -0.0612
     29 C          -8.4098    5.2125   -8.7822 C.ar    1  LIG11      -0.0612
     30 C          -8.5558    4.2417   -9.7726 C.ar    1  LIG11      -0.0617
     31 C          -6.7226    3.5707    3.1195 C.3     1  LIG11       0.0805
     32 C          -9.1731    0.2762   -0.2325 C.3     1  LIG11       0.0790
     33 C          -4.8209    8.7561    1.1224 C.ar    1  LIG11       0.0315
     34 C          -6.0386    9.2600   -0.7932 C.ar    1  LIG11       0.0315
     35 C          -5.2586    9.7156    0.2423 C.ar    1  LIG11      -0.0254
@<TRIPOS>BOND
     1     1     4    2
     2     1     5    2
     3     1     7    1
     4     1    16    1
     5     2    13    1
     6     2    15    1
     7     3    14    1
     8     3    31    1
     9     6    18    1
    10     6    32    1
    11     7    12    1
    12     8    12   ar
    13     8    17   ar
    14     9    14   ar
    15     9    17   ar
    16    10    22   ar
    17    10    33   ar
    18    11    22   ar
    19    11    34   ar
    20    12    13   ar
    21    13    14   ar
    22    15    18   ar
    23    15    21   ar
    24    16    19    2
    25    17    22    1
    26    18    23   ar
    27    19    20    1
    28    20    26   ar
    29    20    27   ar
    30    21    24   ar
    31    23    25   ar
    32    24    25   ar
    33    26    28   ar
    34    27    29   ar
    35    28    30   ar
    36    29    30   ar
    37    33    35   ar
    38    34    35   ar
@<TRIPOS>MOLECULE
../ET1/ET1_17-21_50CONFORMERS.pdb
 47 48 0 0 0
SMALL
GASTEIGER

@<TRIPOS>ATOM
      1  N         -4.8070    0.3350   -1.8510 N.3    17  LEU17      -0.1231
      2  CA        -5.9720   -0.3250   -2.3930 C.3    17  LEU17       0.1693
      3  CB        -6.0760   -1.7180   -1.5760 C.3    17  LEU17       0.0284
      4  CG        -7.3110   -2.5820   -1.9470 C.3    17  LEU17       0.0019
      5  CD1       -6.9390   -3.2580   -3.2630 C.3    17  LEU17       0.0001
      6  CD2       -7.7350   -3.6450   -0.9830 C.3    17  LEU17       0.0001
      7  C         -7.1850    0.6100   -2.2360 C.2    17  LEU17       0.2592
      8  O         -7.8620    0.7970   -3.2410 O.2    17  LEU17      -0.2718
      9  N         -7.5030    1.0240   -0.9560 N.am   18  ASP18      -0.1960
     10  CA        -8.6550    1.7030   -0.4650 C.3    18  ASP18       0.1840
     11  CB        -9.4600    0.6200    0.3120 C.3    18  ASP18       0.1450
     12  CG       -10.8310    1.1150    0.8640 C.2    18  ASP18       0.3671
     13  OD1      -11.8750    0.6760    0.3220 O.co2  18  ASP18      -0.2456
     14  OD2      -10.9420    1.8120    1.8850 O.co2  18  ASP18      -0.2456
     15  C         -8.2440    2.9730    0.3820 C.2    18  ASP18       0.2622
     16  O         -8.5260    4.1000   -0.0090 O.2    18  ASP18      -0.2715
     17  N         -7.4690    2.7490    1.4010 N.am   19  ILE19      -0.1963
     18  CA        -6.7810    3.7650    2.1880 C.3    19  ILE19       0.1727
     19  CB        -5.8310    3.1830    3.2140 C.3    19  ILE19       0.0290
     20  CG2       -5.2210    4.3700    4.0780 C.3    19  ILE19       0.0023
     21  CG1       -6.5890    2.1450    4.0960 C.3    19  ILE19       0.0022
     22  CD1       -7.7320    2.6430    4.9740 C.3    19  ILE19       0.0001
     23  C         -6.1710    4.8710    1.3220 C.2    19  ILE19       0.2616
     24  O         -6.6090    6.0060    1.3240 O.2    19  ILE19      -0.2715
     25  N         -5.0650    4.4950    0.5440 N.am   20  ILE20      -0.1963
     26  CA        -4.7620    5.2980   -0.6580 C.3    20  ILE20       0.1727
     27  CB        -3.2350    5.6430   -0.5900 C.3    20  ILE20       0.0290
     28  CG2       -3.1020    6.4660    0.6790 C.3    20  ILE20       0.0023
     29  CG1       -2.3060    4.4540   -0.7430 C.3    20  ILE20       0.0022
     30  CD1       -0.8980    4.8160   -0.4210 C.3    20  ILE20       0.0001
     31  C         -5.0510    4.4690   -1.9320 C.2    20  ILE20       0.2617
     32  O         -5.2790    3.2730   -1.9100 O.2    20  ILE20      -0.2715
     33  N         -5.0650    5.1730   -3.0850 N.am   21  TRP21      -0.1941
     34  CA        -5.1520    4.7060   -4.4930 C.3    21  TRP21       0.1982
     35  CB        -6.6430    4.4220   -4.8850 C.3    21  TRP21       0.0394
     36  CG        -6.7540    3.5400   -6.0910 C.3    21  TRP21       0.0475
     37  CD1       -6.3480    2.2620   -6.1710 C.3    21  TRP21       0.1166
     38  NE1       -6.6350    1.6980   -7.4270 N.pl3  21  TRP21      -0.2376
     39  CE2       -7.4160    2.5970   -8.1310 C.ar   21  TRP21       0.0614
     40  CZ2       -7.9590    2.5090   -9.4120 C.ar   21  TRP21       0.0158
     41  CH2       -8.6650    3.6450   -9.9300 C.ar   21  TRP21       0.0013
     42  CZ3       -8.6550    4.8890   -9.1660 C.ar   21  TRP21      -0.0002
     43  CE3       -8.0720    4.9490   -7.9420 C.ar   21  TRP21      -0.0030
     44  CD2       -7.4040    3.8200   -7.3920 C.ar   21  TRP21      -0.0059
     45  C         -4.4520    5.7090   -5.4240 C.2    21  TRP21       0.3842
     46  O         -4.9300    6.8650   -5.4290 O.co2  21  TRP21      -0.2437
     47  OXT       -3.4930    5.4370   -6.1890 O.co2  21  TRP21      -0.2437
@<TRIPOS>BOND
     1    40    41   ar
     2    40    39   ar
     3    41    42   ar
     4    39    38    1
     5    39    44   ar
     6    42    43   ar
     7    38    37    1
     8    43    44   ar
     9    44    36    1
    10    37    36    1
    11    36    35    1
    12    47    45   ar
    13     5     4    1
    14    35    34    1
    15    45    34    1
    16    45    46   ar
    17    34    33    1
    18     8     7    2
    19     4     6    1
    20     4     3    1
    21     2     3    1
    22     2     1    1
    23     2     7    1
    24     7     9   am
    25    33    31   am
    26    32    31    2
    27    31    26    1
    28     9    10    1
    29    10    11    1
    30    10    15    1
    31    26    27    1
    32    26    25    1
    33    11    12    1
    34    13    12   ar
    35    27    29    1
    36    27    28    1
    37    29    30    1
    38    16    15    2
    39    15    17   am
    40    12    14   ar
    41    25    23   am
    42    17    18    1
    43    23    24    2
    44    23    18    1
    45    18    19    1
    46    19    21    1
    47    19    20    1
    48    21    22    1
