@<TRIPOS>MOLECULE
../ET1/ET1_17-21_50CONFORMERS_NOBACKBONE.pdb
 26 23 0 0 0
SMALL
GASTEIGER

@<TRIPOS>ATOM
      1  CB        -5.9250   -1.7020   -0.6090 C.3    17  LEU17       0.0000
      2  CG        -7.3350   -2.3400   -0.4320 C.3    17  LEU17       0.0000
      3  CD1       -7.8250   -2.9760   -1.7640 C.3    17  LEU17       0.0000
      4  CD2       -7.2810   -3.4490    0.6510 C.3    17  LEU17       0.0000
      5  CB        -9.3810    1.8010   -0.1350 C.3    18  ASP18       0.1258
      6  CG       -10.3510    2.9420   -0.1480 C.2    18  ASP18       0.3654
      7  OD1      -10.3540    3.7630    0.8020 O.co2  18  ASP18      -0.2456
      8  OD2      -11.1620    3.0020   -1.0640 O.co2  18  ASP18      -0.2456
      9  CB        -5.8480    4.1110    2.8050 C.3    19  ILE19       0.0000
     10  CG2       -4.4360    3.5410    2.6990 C.3    19  ILE19       0.0000
     11  CG1       -5.9520    5.2180    3.9010 C.3    19  ILE19       0.0000
     12  CD1       -5.2700    5.0410    5.2910 C.3    19  ILE19       0.0000
     13  CB        -2.2050    5.5180   -0.6590 C.3    20  ILE20       0.0000
     14  CG2       -2.0270    6.7600    0.2650 C.3    20  ILE20       0.0000
     15  CG1       -1.7390    4.2780    0.0680 C.3    20  ILE20       0.0000
     16  CD1       -0.2410    4.0620   -0.1470 C.3    20  ILE20       0.0000
     17  CB        -5.9180    4.2520   -5.1860 C.3    21  TRP21       0.0066
     18  CG        -6.1830    3.4440   -6.3980 C.3    21  TRP21       0.0452
     19  CD1       -6.5530    3.9940   -7.5750 C.3    21  TRP21       0.1165
     20  NE1       -6.7950    2.9250   -8.4560 N.pl3  21  TRP21      -0.2376
     21  CE2       -6.5250    1.7210   -7.8750 C.ar   21  TRP21       0.0614
     22  CZ2       -6.5900    0.4160   -8.3270 C.ar   21  TRP21       0.0158
     23  CH2       -6.3030   -0.7230   -7.4870 C.ar   21  TRP21       0.0013
     24  CZ3       -5.7700   -0.4130   -6.2280 C.ar   21  TRP21      -0.0002
     25  CE3       -5.6490    0.9570   -5.7980 C.ar   21  TRP21      -0.0030
     26  CD2       -6.0710    2.0140   -6.5550 C.ar   21  TRP21      -0.0059
@<TRIPOS>BOND
     1    22    23   ar
     2    22    21   ar
     3    23    24   ar
     4    21    20    1
     5    21    26   ar
     6    24    25   ar
     7    20    19    1
     8    25    26   ar
     9    26    18    1
    10    19    18    1
    11    18    17    1
    12     3     2    1
    13     2     4    1
    14     2     1    1
    15     5     6    1
    16     7     6   ar
    17    13    15    1
    18    13    14    1
    19    15    16    1
    20     6     8   ar
    21     9    11    1
    22     9    10    1
    23    11    12    1
@<TRIPOS>MOLECULE
178103
 37 41 0 0 0
SMALL
GASTEIGER

@<TRIPOS>ATOM
      1 O          -6.1699    5.3588   -7.8811 O.co2   1  LIG11      -0.5495
      2 O          -8.2157    4.5316   -7.3201 O.co2   1  LIG11      -0.5495
      3 O          -1.6340    4.3573   -2.2304 O.3     1  LIG11      -0.4920
      4 O          -5.8329    7.5410   -3.8061 O.3     1  LIG11      -0.4893
      5 O          -5.5306   -1.8042   -5.3239 O.3     1  LIG11      -0.4526
      6 O          -6.7961   -2.2809   -7.3228 O.3     1  LIG11      -0.4526
      7 O          -9.2984    6.5127   -0.6738 O.3     1  LIG11      -0.4950
      8 O          -3.4076    9.0241   -3.7269 O.3     1  LIG11      -0.3917
      9 C          -6.3731    3.9484   -5.9781 C.3     1  LIG11       0.0203
     10 C          -5.8360    4.9988   -4.9721 C.3     1  LIG11       0.0218
     11 C          -5.1823    3.0793   -6.4521 C.3     1  LIG11       0.0184
     12 C          -4.5351    4.3666   -4.5243 C.ar    1  LIG11      -0.0320
     13 C          -4.1520    3.3262   -5.3720 C.ar    1  LIG11      -0.0353
     14 C          -6.7602    5.3684   -3.8078 C.ar    1  LIG11       0.0025
     15 C          -5.6196    1.6275   -6.6676 C.ar    1  LIG11      -0.0356
     16 C          -6.9713    4.6934   -7.1662 C.2     1  LIG11       0.0466
     17 C          -3.7114    4.7772   -3.4787 C.ar    1  LIG11      -0.0159
     18 C          -2.9164    2.7110   -5.2098 C.ar    1  LIG11      -0.0542
     19 C          -6.7459    6.6726   -3.2645 C.ar    1  LIG11       0.1278
     20 C          -2.5058    4.1112   -3.2574 C.ar    1  LIG11       0.1208
     21 C          -5.3370    0.5873   -5.7641 C.ar    1  LIG11      -0.0124
     22 C          -2.1075    3.0925   -4.1358 C.ar    1  LIG11      -0.0196
     23 C          -6.3783    1.3270   -7.8287 C.ar    1  LIG11      -0.0543
     24 C          -7.6072    4.4161   -3.2139 C.ar    1  LIG11      -0.0510
     25 C          -5.7601   -0.6902   -6.0730 C.ar    1  LIG11       0.1665
     26 C          -6.8184    0.0267   -8.1037 C.ar    1  LIG11      -0.0159
     27 C          -7.6095    7.0042   -2.2124 C.ar    1  LIG11       0.0221
     28 C          -8.4712    4.7584   -2.1701 C.ar    1  LIG11      -0.0194
     29 C          -6.4790   -0.9630   -7.2116 C.ar    1  LIG11       0.1662
     30 C          -8.4919    6.0605   -1.6847 C.ar    1  LIG11       0.1236
     31 C          -2.0166    5.3569   -1.2848 C.3     1  LIG11       0.0893
     32 C          -6.1628   -2.8085   -6.1406 C.3     1  LIG11       0.2332
     33 C          -5.7864    8.8743   -3.2966 C.3     1  LIG11       0.1126
     34 C          -1.1288    5.2234   -0.0497 C.3     1  LIG11      -0.0215
     35 C          -4.6737    9.6108   -4.0356 C.3     1  LIG11       0.0783
     36 C         -10.5223    5.8039   -0.5148 C.3     1  LIG11       0.0788
     37 C          -1.4353    3.9471    0.7229 C.3     1  LIG11      -0.0622
@<TRIPOS>BOND
     1     1    16   ar
     2     2    16   ar
     3     3    20    1
     4     3    31    1
     5     4    19    1
     6     4    33    1
     7     5    25    1
     8     5    32    1
     9     6    29    1
    10     6    32    1
    11     7    30    1
    12     7    36    1
    13     8    35    1
    14     9    10    1
    15     9    11    1
    16     9    16    1
    17    10    12    1
    18    10    14    1
    19    11    13    1
    20    11    15    1
    21    12    13   ar
    22    12    17   ar
    23    13    18   ar
    24    14    19   ar
    25    14    24   ar
    26    15    21   ar
    27    15    23   ar
    28    17    20   ar
    29    18    22   ar
    30    19    27   ar
    31    20    22   ar
    32    21    25   ar
    33    23    26   ar
    34    24    28   ar
    35    25    29   ar
    36    26    29   ar
    37    27    30   ar
    38    28    30   ar
    39    31    34    1
    40    33    35    1
    41    34    37    1
@<TRIPOS>MOLECULE
../ET1/ET1_17-21_50CONFORMERS.pdb
 47 48 0 0 0
SMALL
GASTEIGER

@<TRIPOS>ATOM
      1  N         -4.3700   -0.2050   -1.7330 N.3    17  LEU17      -0.1231
      2  CA        -5.7270   -0.7750   -1.8670 C.3    17  LEU17       0.1693
      3  CB        -5.9250   -1.7020   -0.6090 C.3    17  LEU17       0.0284
      4  CG        -7.3350   -2.3400   -0.4320 C.3    17  LEU17       0.0019
      5  CD1       -7.8250   -2.9760   -1.7640 C.3    17  LEU17       0.0001
      6  CD2       -7.2810   -3.4490    0.6510 C.3    17  LEU17       0.0001
      7  C         -6.8660    0.3180   -2.0260 C.2    17  LEU17       0.2592
      8  O         -7.5290    0.4260   -3.0600 O.2    17  LEU17      -0.2718
      9  N         -7.1710    1.0340   -0.9730 N.am   18  ASP18      -0.1960
     10  CA        -8.1490    2.1740   -0.9600 C.3    18  ASP18       0.1840
     11  CB        -9.3810    1.8010   -0.1350 C.3    18  ASP18       0.1450
     12  CG       -10.3510    2.9420   -0.1480 C.2    18  ASP18       0.3671
     13  OD1      -10.3540    3.7630    0.8020 O.co2  18  ASP18      -0.2456
     14  OD2      -11.1620    3.0020   -1.0640 O.co2  18  ASP18      -0.2456
     15  C         -7.5260    3.4970   -0.5310 C.2    18  ASP18       0.2622
     16  O         -7.5490    4.4920   -1.2150 O.2    18  ASP18      -0.2715
     17  N         -7.0110    3.4560    0.6880 N.am   19  ILE19      -0.1963
     18  CA        -6.4050    4.6090    1.4860 C.3    19  ILE19       0.1727
     19  CB        -5.8480    4.1110    2.8050 C.3    19  ILE19       0.0290
     20  CG2       -4.4360    3.5410    2.6990 C.3    19  ILE19       0.0023
     21  CG1       -5.9520    5.2180    3.9010 C.3    19  ILE19       0.0022
     22  CD1       -5.2700    5.0410    5.2910 C.3    19  ILE19       0.0001
     23  C         -5.3800    5.4660    0.7170 C.2    19  ILE19       0.2616
     24  O         -5.2630    6.6980    1.0150 O.2    19  ILE19      -0.2715
     25  N         -4.6510    4.8890   -0.3130 N.am   20  ILE20      -0.1963
     26  CA        -3.6930    5.5110   -1.2680 C.3    20  ILE20       0.1727
     27  CB        -2.2050    5.5180   -0.6590 C.3    20  ILE20       0.0290
     28  CG2       -2.0270    6.7600    0.2650 C.3    20  ILE20       0.0023
     29  CG1       -1.7390    4.2780    0.0680 C.3    20  ILE20       0.0022
     30  CD1       -0.2410    4.0620   -0.1470 C.3    20  ILE20       0.0001
     31  C         -3.7690    4.7160   -2.6150 C.2    20  ILE20       0.2617
     32  O         -3.3950    3.5270   -2.6260 O.2    20  ILE20      -0.2715
     33  N         -4.2860    5.3520   -3.6550 N.am   21  TRP21      -0.1941
     34  CA        -4.5320    4.7740   -5.0040 C.3    21  TRP21       0.1982
     35  CB        -5.9180    4.2520   -5.1860 C.3    21  TRP21       0.0394
     36  CG        -6.1830    3.4440   -6.3980 C.3    21  TRP21       0.0475
     37  CD1       -6.5530    3.9940   -7.5750 C.3    21  TRP21       0.1166
     38  NE1       -6.7950    2.9250   -8.4560 N.pl3  21  TRP21      -0.2376
     39  CE2       -6.5250    1.7210   -7.8750 C.ar   21  TRP21       0.0614
     40  CZ2       -6.5900    0.4160   -8.3270 C.ar   21  TRP21       0.0158
     41  CH2       -6.3030   -0.7230   -7.4870 C.ar   21  TRP21       0.0013
     42  CZ3       -5.7700   -0.4130   -6.2280 C.ar   21  TRP21      -0.0002
     43  CE3       -5.6490    0.9570   -5.7980 C.ar   21  TRP21      -0.0030
     44  CD2       -6.0710    2.0140   -6.5550 C.ar   21  TRP21      -0.0059
     45  C         -4.0910    5.7090   -6.1000 C.2    21  TRP21       0.3842
     46  O         -4.4160    6.9060   -5.9990 O.co2  21  TRP21      -0.2437
     47  OXT       -3.3120    5.2700   -6.9670 O.co2  21  TRP21      -0.2437
@<TRIPOS>BOND
     1    40    41   ar
     2    40    39   ar
     3    41    42   ar
     4    39    38    1
     5    39    44   ar
     6    42    43   ar
     7    38    37    1
     8    43    44   ar
     9    44    36    1
    10    37    36    1
    11    36    35    1
    12    47    45   ar
    13     5     4    1
    14    35    34    1
    15    45    34    1
    16    45    46   ar
    17    34    33    1
    18     8     7    2
    19     4     6    1
    20     4     3    1
    21     2     3    1
    22     2     1    1
    23     2     7    1
    24     7     9   am
    25    33    31   am
    26    32    31    2
    27    31    26    1
    28     9    10    1
    29    10    11    1
    30    10    15    1
    31    26    27    1
    32    26    25    1
    33    11    12    1
    34    13    12   ar
    35    27    29    1
    36    27    28    1
    37    29    30    1
    38    16    15    2
    39    15    17   am
    40    12    14   ar
    41    25    23   am
    42    17    18    1
    43    23    24    2
    44    23    18    1
    45    18    19    1
    46    19    21    1
    47    19    20    1
    48    21    22    1
