@<TRIPOS>MOLECULE
../ET1/ET1_17-21_50CONFORMERS_NOBACKBONE.pdb
 26 23 0 0 0
SMALL
GASTEIGER

@<TRIPOS>ATOM
      1  CB        -6.2370   -1.9060   -0.8090 C.3    17  LEU17       0.0000
      2  CG        -7.4660   -2.8090   -0.9810 C.3    17  LEU17       0.0000
      3  CD1       -7.3560   -3.4820   -2.3060 C.3    17  LEU17       0.0000
      4  CD2       -7.3870   -3.9310    0.0580 C.3    17  LEU17       0.0000
      5  CB        -9.3740    1.0100    0.5840 C.3    18  ASP18       0.1258
      6  CG       -10.8760    1.2590    0.5410 C.2    18  ASP18       0.3654
      7  OD1      -11.5100    0.8800   -0.4640 O.co2  18  ASP18      -0.2456
      8  OD2      -11.4980    1.6580    1.5360 O.co2  18  ASP18      -0.2456
      9  CB        -5.9820    3.8140    3.0930 C.3    19  ILE19       0.0000
     10  CG2       -5.2490    4.8290    3.9590 C.3    19  ILE19       0.0000
     11  CG1       -6.9490    2.9710    4.0280 C.3    19  ILE19       0.0000
     12  CD1       -8.1430    3.7570    4.6140 C.3    19  ILE19       0.0000
     13  CB        -2.7750    5.8290   -0.2290 C.3    20  ILE20       0.0000
     14  CG2       -2.5690    6.8090    0.9650 C.3    20  ILE20       0.0000
     15  CG1       -2.1270    4.4210    0.0750 C.3    20  ILE20       0.0000
     16  CD1       -0.6210    4.3880   -0.2750 C.3    20  ILE20       0.0000
     17  CB        -5.4540    6.6020   -4.8090 C.3    21  TRP21       0.0066
     18  CG        -6.6880    5.9210   -4.2770 C.3    21  TRP21       0.0452
     19  CD1       -7.1570    6.0380   -3.0010 C.3    21  TRP21       0.1165
     20  NE1       -8.3640    5.3580   -2.9180 N.pl3  21  TRP21      -0.2376
     21  CE2       -8.5990    4.5980   -4.0280 C.ar   21  TRP21       0.0614
     22  CZ2       -9.6310    3.7400   -4.3800 C.ar   21  TRP21       0.0158
     23  CH2       -9.4910    3.1980   -5.6310 C.ar   21  TRP21       0.0013
     24  CZ3       -8.4310    3.4250   -6.5820 C.ar   21  TRP21      -0.0002
     25  CE3       -7.3850    4.2640   -6.2140 C.ar   21  TRP21      -0.0030
     26  CD2       -7.4930    4.8870   -4.9130 C.ar   21  TRP21      -0.0059
@<TRIPOS>BOND
     1    22    23   ar
     2    22    21   ar
     3    23    24   ar
     4    21    20    1
     5    21    26   ar
     6    24    25   ar
     7    20    19    1
     8    25    26   ar
     9    26    18    1
    10    19    18    1
    11    18    17    1
    12     3     2    1
    13     2     4    1
    14     2     1    1
    15     5     6    1
    16     7     6   ar
    17    13    15    1
    18    13    14    1
    19    15    16    1
    20     6     8   ar
    21     9    11    1
    22     9    10    1
    23    11    12    1
@<TRIPOS>MOLECULE
156690
 38 41 0 0 0
SMALL
GASTEIGER

@<TRIPOS>ATOM
      1 S          -7.8109    3.2047   -8.6161 S.O2    1  LIG11       0.0741
      2 O          -8.8667   -1.0034   -2.8382 O.2     1  LIG11      -0.2756
      3 O          -7.3152    1.8603   -8.8186 O.2     1  LIG11      -0.1499
      4 O          -6.9984    4.3219   -9.0633 O.2     1  LIG11      -0.1499
      5 O          -9.1467   -4.0203   -7.1054 O.2     1  LIG11      -0.4436
      6 O         -11.2036    6.1075   -8.5157 O.2     1  LIG11      -0.3578
      7 N          -6.8866   -1.0269   -3.9931 N.am    1  LIG11      -0.3002
      8 N          -9.2836    3.3241   -9.4407 N.pl3   1  LIG11      -0.1965
      9 N         -10.2232   -3.4072   -8.9936 N.ar    1  LIG11      -0.2175
     10 N         -10.5302    4.9452   -8.2193 N.ar    1  LIG11      -0.0614
     11 C          -7.3283   -2.9643   -0.9646 C.3     1  LIG11      -0.0295
     12 C          -7.5246   -2.9503   -2.5012 C.3     1  LIG11       0.0290
     13 C          -8.6628   -2.7253   -0.2348 C.3     1  LIG11      -0.0596
     14 C          -6.3065   -1.9097   -0.5127 C.3     1  LIG11      -0.0596
     15 C          -6.8067   -4.3572   -0.5563 C.3     1  LIG11      -0.0596
     16 C          -7.8078   -1.5770   -3.1070 C.2     1  LIG11       0.2161
     17 C          -7.2914    0.1719   -4.7434 C.3     1  LIG11       0.0400
     18 C          -8.2908   -0.0586   -5.8756 C.ar    1  LIG11      -0.0216
     19 C          -8.9953    1.0241   -6.4751 C.ar    1  LIG11      -0.0113
     20 C          -8.7762    2.4348   -6.0773 C.ar    1  LIG11       0.0090
     21 C          -5.5556   -1.5462   -4.2713 C.3     1  LIG11       0.0035
     22 C          -8.5089   -1.3660   -6.3656 C.ar    1  LIG11      -0.0442
     23 C          -8.2080    3.4356   -6.8931 C.ar    1  LIG11       0.1162
     24 C          -9.9521    0.7287   -7.4651 C.ar    1  LIG11      -0.0529
     25 C          -9.4265   -1.6402   -7.3879 C.ar    1  LIG11       0.0372
     26 C         -10.1523   -0.5770   -7.9261 C.ar    1  LIG11      -0.0489
     27 C          -9.1555    2.8204   -4.7722 C.ar    1  LIG11      -0.0521
     28 C          -7.9272    4.7171   -6.3709 C.ar    1  LIG11      -0.0345
     29 C          -8.8946    4.0980   -4.2672 C.ar    1  LIG11      -0.0611
     30 C          -9.6290   -2.9978   -7.8868 C.ar    1  LIG11       0.2271
     31 C          -8.2637    5.0418   -5.0618 C.ar    1  LIG11      -0.0599
     32 C         -10.0140    4.5074   -9.3684 C.ar    1  LIG11       0.1837
     33 C         -10.3764    5.3523  -10.4507 C.ar    1  LIG11       0.0342
     34 C         -11.1101    6.3551   -9.8458 C.ar    1  LIG11       0.1390
     35 C         -10.0217    5.2557  -11.8827 C.3     1  LIG11      -0.0330
     36 C          -9.4726   -5.1494   -7.7912 C.ar    1  LIG11       0.1125
     37 C         -10.1145   -4.7740   -8.9426 C.ar    1  LIG11       0.0663
     38 C         -11.7648    7.5885  -10.3242 C.3     1  LIG11      -0.0034
@<TRIPOS>BOND
     1     1     3    2
     2     1     4    2
     3     1     8    1
     4     1    23    1
     5     2    16    2
     6     5    30   ar
     7     5    36   ar
     8     6    10   ar
     9     6    34   ar
    10     7    16   am
    11     7    17    1
    12     7    21    1
    13     8    32    1
    14     9    30   ar
    15     9    37   ar
    16    10    32   ar
    17    11    12    1
    18    11    13    1
    19    11    14    1
    20    11    15    1
    21    12    16    1
    22    17    18    1
    23    18    19   ar
    24    18    22   ar
    25    19    20    1
    26    19    24   ar
    27    20    23   ar
    28    20    27   ar
    29    22    25   ar
    30    23    28   ar
    31    24    26   ar
    32    25    26   ar
    33    25    30    1
    34    27    29   ar
    35    28    31   ar
    36    29    31   ar
    37    32    33   ar
    38    33    34   ar
    39    33    35    1
    40    34    38    1
    41    36    37   ar
@<TRIPOS>MOLECULE
../ET1/ET1_17-21_50CONFORMERS.pdb
 47 48 0 0 0
SMALL
GASTEIGER

@<TRIPOS>ATOM
      1  N         -4.8560    0.0190   -1.3960 N.3    17  LEU17      -0.1231
      2  CA        -6.0070   -0.7600   -1.8020 C.3    17  LEU17       0.1693
      3  CB        -6.2370   -1.9060   -0.8090 C.3    17  LEU17       0.0284
      4  CG        -7.4660   -2.8090   -0.9810 C.3    17  LEU17       0.0019
      5  CD1       -7.3560   -3.4820   -2.3060 C.3    17  LEU17       0.0001
      6  CD2       -7.3870   -3.9310    0.0580 C.3    17  LEU17       0.0001
      7  C         -7.1880    0.1770   -1.7760 C.2    17  LEU17       0.2592
      8  O         -7.9480    0.2100   -2.7610 O.2    17  LEU17      -0.2718
      9  N         -7.3090    0.9660   -0.6710 N.am   18  ASP18      -0.1960
     10  CA        -8.4950    1.7900   -0.3680 C.3    18  ASP18       0.1840
     11  CB        -9.3740    1.0100    0.5840 C.3    18  ASP18       0.1450
     12  CG       -10.8760    1.2590    0.5410 C.2    18  ASP18       0.3671
     13  OD1      -11.5100    0.8800   -0.4640 O.co2  18  ASP18      -0.2456
     14  OD2      -11.4980    1.6580    1.5360 O.co2  18  ASP18      -0.2456
     15  C         -8.2290    3.1800    0.2770 C.2    18  ASP18       0.2622
     16  O         -8.8100    4.1600   -0.1410 O.2    18  ASP18      -0.2715
     17  N         -7.3150    3.2400    1.2190 N.am   19  ILE19      -0.1963
     18  CA        -6.7420    4.3780    1.9070 C.3    19  ILE19       0.1727
     19  CB        -5.9820    3.8140    3.0930 C.3    19  ILE19       0.0290
     20  CG2       -5.2490    4.8290    3.9590 C.3    19  ILE19       0.0023
     21  CG1       -6.9490    2.9710    4.0280 C.3    19  ILE19       0.0022
     22  CD1       -8.1430    3.7570    4.6140 C.3    19  ILE19       0.0001
     23  C         -5.8920    5.3340    1.0330 C.2    19  ILE19       0.2616
     24  O         -6.0450    6.5710    1.1950 O.2    19  ILE19      -0.2715
     25  N         -5.0480    4.8540    0.1700 N.am   20  ILE20      -0.1963
     26  CA        -4.2510    5.7060   -0.7240 C.3    20  ILE20       0.1727
     27  CB        -2.7750    5.8290   -0.2290 C.3    20  ILE20       0.0290
     28  CG2       -2.5690    6.8090    0.9650 C.3    20  ILE20       0.0023
     29  CG1       -2.1270    4.4210    0.0750 C.3    20  ILE20       0.0022
     30  CD1       -0.6210    4.3880   -0.2750 C.3    20  ILE20       0.0001
     31  C         -4.2740    5.1040   -2.1200 C.2    20  ILE20       0.2617
     32  O         -4.4960    3.9560   -2.3960 O.2    20  ILE20      -0.2715
     33  N         -3.8620    6.0050   -3.0600 N.am   21  TRP21      -0.1941
     34  CA        -4.0860    5.9150   -4.5310 C.3    21  TRP21       0.1982
     35  CB        -5.4540    6.6020   -4.8090 C.3    21  TRP21       0.0394
     36  CG        -6.6880    5.9210   -4.2770 C.3    21  TRP21       0.0475
     37  CD1       -7.1570    6.0380   -3.0010 C.3    21  TRP21       0.1166
     38  NE1       -8.3640    5.3580   -2.9180 N.pl3  21  TRP21      -0.2376
     39  CE2       -8.5990    4.5980   -4.0280 C.ar   21  TRP21       0.0614
     40  CZ2       -9.6310    3.7400   -4.3800 C.ar   21  TRP21       0.0158
     41  CH2       -9.4910    3.1980   -5.6310 C.ar   21  TRP21       0.0013
     42  CZ3       -8.4310    3.4250   -6.5820 C.ar   21  TRP21      -0.0002
     43  CE3       -7.3850    4.2640   -6.2140 C.ar   21  TRP21      -0.0030
     44  CD2       -7.4930    4.8870   -4.9130 C.ar   21  TRP21      -0.0059
     45  C         -2.9310    6.6240   -5.2100 C.2    21  TRP21       0.3842
     46  O         -2.3500    6.0530   -6.1390 O.co2  21  TRP21      -0.2437
     47  OXT       -2.5760    7.8240   -4.9370 O.co2  21  TRP21      -0.2437
@<TRIPOS>BOND
     1    40    41   ar
     2    40    39   ar
     3    41    42   ar
     4    39    38    1
     5    39    44   ar
     6    42    43   ar
     7    38    37    1
     8    43    44   ar
     9    44    36    1
    10    37    36    1
    11    36    35    1
    12    47    45   ar
    13     5     4    1
    14    35    34    1
    15    45    34    1
    16    45    46   ar
    17    34    33    1
    18     8     7    2
    19     4     6    1
    20     4     3    1
    21     2     3    1
    22     2     1    1
    23     2     7    1
    24     7     9   am
    25    33    31   am
    26    32    31    2
    27    31    26    1
    28     9    10    1
    29    10    11    1
    30    10    15    1
    31    26    27    1
    32    26    25    1
    33    11    12    1
    34    13    12   ar
    35    27    29    1
    36    27    28    1
    37    29    30    1
    38    16    15    2
    39    15    17   am
    40    12    14   ar
    41    25    23   am
    42    17    18    1
    43    23    24    2
    44    23    18    1
    45    18    19    1
    46    19    21    1
    47    19    20    1
    48    21    22    1
