@<TRIPOS>MOLECULE
../ET1/ET1_17-21_50CONFORMERS_NOBACKBONE.pdb
 26 23 0 0 0
SMALL
GASTEIGER

@<TRIPOS>ATOM
      1  CB        -6.1790   -1.2220   -0.4480 C.3    17  LEU17       0.0000
      2  CG        -7.2710   -2.2600   -0.6260 C.3    17  LEU17       0.0000
      3  CD1       -7.0390   -3.3820   -1.7660 C.3    17  LEU17       0.0000
      4  CD2       -7.5630   -2.8400    0.7060 C.3    17  LEU17       0.0000
      5  CB        -9.2830    1.6460   -1.8020 C.3    18  ASP18       0.1258
      6  CG       -10.5370    2.4520   -2.2150 C.2    18  ASP18       0.3654
      7  OD1      -11.1140    2.0050   -3.2510 O.co2  18  ASP18      -0.2456
      8  OD2      -10.9560    3.4170   -1.5210 O.co2  18  ASP18      -0.2456
      9  CB        -7.4840    5.3020    1.2320 C.3    19  ILE19       0.0000
     10  CG2       -6.9460    6.6770    1.8040 C.3    19  ILE19       0.0000
     11  CG1       -8.9970    5.0190    1.4390 C.3    19  ILE19       0.0000
     12  CD1       -9.6510    5.0260    2.8000 C.3    19  ILE19       0.0000
     13  CB        -2.1940    4.4390   -0.1210 C.3    20  ILE20       0.0000
     14  CG2       -0.8360    4.4230   -0.8410 C.3    20  ILE20       0.0000
     15  CG1       -2.0260    5.1680    1.2250 C.3    20  ILE20       0.0000
     16  CD1       -3.0830    4.8000    2.2720 C.3    20  ILE20       0.0000
     17  CB        -4.9890    4.5460   -5.3170 C.3    21  TRP21       0.0066
     18  CG        -5.3170    4.0380   -6.7550 C.3    21  TRP21       0.0452
     19  CD1       -5.2500    4.7270   -7.9210 C.3    21  TRP21       0.1165
     20  NE1       -5.5580    3.8940   -8.9880 N.pl3  21  TRP21      -0.2376
     21  CE2       -5.8900    2.6280   -8.5770 C.ar   21  TRP21       0.0614
     22  CZ2       -6.3820    1.5100   -9.2020 C.ar   21  TRP21       0.0158
     23  CH2       -6.8100    0.4000   -8.5950 C.ar   21  TRP21       0.0013
     24  CZ3       -6.8190    0.4660   -7.1640 C.ar   21  TRP21      -0.0002
     25  CE3       -6.3210    1.6010   -6.4690 C.ar   21  TRP21      -0.0030
     26  CD2       -5.8180    2.6990   -7.1070 C.ar   21  TRP21      -0.0059
@<TRIPOS>BOND
     1    22    23   ar
     2    22    21   ar
     3    23    24   ar
     4    21    20    1
     5    21    26   ar
     6    24    25   ar
     7    20    19    1
     8    25    26   ar
     9    26    18    1
    10    19    18    1
    11    18    17    1
    12     3     2    1
    13     2     4    1
    14     2     1    1
    15     5     6    1
    16     7     6   ar
    17    13    15    1
    18    13    14    1
    19    15    16    1
    20     6     8   ar
    21     9    11    1
    22     9    10    1
    23    11    12    1
@<TRIPOS>MOLECULE
9910224
 30 33 0 0 0
SMALL
GASTEIGER

@<TRIPOS>ATOM
      1 S          -4.5245    1.3241   -3.8697 S.O2    1  LIG11       0.0756
      2 O          -3.8827    0.9826   -2.6136 O.2     1  LIG11      -0.1499
      3 O          -3.9217    0.8778   -5.1045 O.2     1  LIG11      -0.1499
      4 O          -3.1240    3.9625   -1.7236 O.3     1  LIG11      -0.4773
      5 O          -6.3833    1.1041  -11.3991 O.2     1  LIG11      -0.4229
      6 N          -4.6103    3.0141   -3.9321 N.pl3   1  LIG11      -0.1951
      7 N          -8.2738    0.1053   -4.8037 N.ar    1  LIG11      -0.2530
      8 N          -6.5709    3.6153   -2.8321 N.ar    1  LIG11      -0.2325
      9 N          -5.1167    4.4742   -0.5441 N.ar    1  LIG11      -0.2137
     10 N          -5.3341    3.0286  -10.9528 N.ar    1  LIG11      -0.1076
     11 N          -5.3841    2.8773  -12.3246 N.ar    1  LIG11      -0.1156
     12 C          -6.1938    0.7527   -3.7980 C.ar    1  LIG11       0.1344
     13 C          -7.0151    0.6350   -4.9161 C.ar    1  LIG11       0.0975
     14 C          -6.6943    0.9941   -6.3100 C.ar    1  LIG11       0.0023
     15 C          -6.6707    0.3031   -2.5533 C.ar    1  LIG11      -0.0315
     16 C          -6.8626    0.0376   -7.3290 C.ar    1  LIG11      -0.0518
     17 C          -6.2953    2.2809   -6.6963 C.ar    1  LIG11      -0.0518
     18 C          -5.2245    3.5956   -2.7864 C.ar    1  LIG11       0.2006
     19 C          -6.1859    1.6210   -9.0443 C.ar    1  LIG11       0.0385
     20 C          -6.6178    0.3434   -8.6730 C.ar    1  LIG11      -0.0488
     21 C          -6.0222    2.5834   -8.0389 C.ar    1  LIG11      -0.0488
     22 C          -7.9503   -0.2240   -2.4458 C.ar    1  LIG11      -0.0417
     23 C          -8.7099   -0.3006   -3.5926 C.ar    1  LIG11       0.0284
     24 C          -4.5036    4.0058   -1.6586 C.ar    1  LIG11       0.2574
     25 C          -5.9255    1.9691  -10.4345 C.ar    1  LIG11       0.2480
     26 C          -6.4729    4.5045   -0.5869 C.ar    1  LIG11       0.0602
     27 C          -7.1756    4.0857   -1.7152 C.ar    1  LIG11       0.0510
     28 C          -7.2034    5.0012    0.6214 C.3     1  LIG11      -0.0208
     29 C          -2.5053    4.2213   -0.4666 C.3     1  LIG11       0.0805
     30 C          -6.0108    1.7459  -12.5392 C.ar    1  LIG11       0.2047
@<TRIPOS>BOND
     1     1     2    2
     2     1     3    2
     3     1     6    1
     4     1    12    1
     5     4    24    1
     6     4    29    1
     7     5    25   ar
     8     5    30   ar
     9     6    18    1
    10     7    13   ar
    11     7    23   ar
    12     8    18   ar
    13     8    27   ar
    14     9    24   ar
    15     9    26   ar
    16    10    11   ar
    17    10    25   ar
    18    11    30   ar
    19    12    13   ar
    20    12    15   ar
    21    13    14    1
    22    14    16   ar
    23    14    17   ar
    24    15    22   ar
    25    16    20   ar
    26    17    21   ar
    27    18    24   ar
    28    19    20   ar
    29    19    21   ar
    30    19    25    1
    31    22    23   ar
    32    26    27   ar
    33    26    28    1
@<TRIPOS>MOLECULE
../ET1/ET1_17-21_50CONFORMERS.pdb
 47 48 0 0 0
SMALL
GASTEIGER

@<TRIPOS>ATOM
      1  N         -4.4410    0.2010   -1.3300 N.3    17  LEU17      -0.1231
      2  CA        -5.5650   -0.6370   -1.7110 C.3    17  LEU17       0.1693
      3  CB        -6.1790   -1.2220   -0.4480 C.3    17  LEU17       0.0284
      4  CG        -7.2710   -2.2600   -0.6260 C.3    17  LEU17       0.0019
      5  CD1       -7.0390   -3.3820   -1.7660 C.3    17  LEU17       0.0001
      6  CD2       -7.5630   -2.8400    0.7060 C.3    17  LEU17       0.0001
      7  C         -6.4970    0.2350   -2.5900 C.2    17  LEU17       0.2592
      8  O         -6.8530   -0.0600   -3.7650 O.2    17  LEU17      -0.2718
      9  N         -6.9540    1.3410   -2.0600 N.am   18  ASP18      -0.1960
     10  CA        -8.0640    2.1930   -2.4620 C.3    18  ASP18       0.1840
     11  CB        -9.2830    1.6460   -1.8020 C.3    18  ASP18       0.1450
     12  CG       -10.5370    2.4520   -2.2150 C.2    18  ASP18       0.3671
     13  OD1      -11.1140    2.0050   -3.2510 O.co2  18  ASP18      -0.2456
     14  OD2      -10.9560    3.4170   -1.5210 O.co2  18  ASP18      -0.2456
     15  C         -7.9070    3.6610   -2.1470 C.2    18  ASP18       0.2622
     16  O         -8.2070    4.6000   -2.9010 O.2    18  ASP18      -0.2715
     17  N         -7.5000    3.8940   -0.8870 N.am   19  ILE19      -0.1963
     18  CA        -7.1370    5.2190   -0.2970 C.3    19  ILE19       0.1727
     19  CB        -7.4840    5.3020    1.2320 C.3    19  ILE19       0.0290
     20  CG2       -6.9460    6.6770    1.8040 C.3    19  ILE19       0.0023
     21  CG1       -8.9970    5.0190    1.4390 C.3    19  ILE19       0.0022
     22  CD1       -9.6510    5.0260    2.8000 C.3    19  ILE19       0.0001
     23  C         -5.7050    5.6160   -0.7450 C.2    19  ILE19       0.2616
     24  O         -5.5450    6.6670   -1.4030 O.2    19  ILE19      -0.2715
     25  N         -4.6630    4.8680   -0.3900 N.am   20  ILE20      -0.1963
     26  CA        -3.3280    4.9590   -1.0090 C.3    20  ILE20       0.1727
     27  CB        -2.1940    4.4390   -0.1210 C.3    20  ILE20       0.0290
     28  CG2       -0.8360    4.4230   -0.8410 C.3    20  ILE20       0.0023
     29  CG1       -2.0260    5.1680    1.2250 C.3    20  ILE20       0.0022
     30  CD1       -3.0830    4.8000    2.2720 C.3    20  ILE20       0.0001
     31  C         -3.4160    4.2400   -2.3320 C.2    20  ILE20       0.2617
     32  O         -3.5130    3.0230   -2.3730 O.2    20  ILE20      -0.2715
     33  N         -3.2910    4.9330   -3.5120 N.am   21  TRP21      -0.1941
     34  CA        -3.5400    4.5000   -4.9110 C.3    21  TRP21       0.1982
     35  CB        -4.9890    4.5460   -5.3170 C.3    21  TRP21       0.0394
     36  CG        -5.3170    4.0380   -6.7550 C.3    21  TRP21       0.0475
     37  CD1       -5.2500    4.7270   -7.9210 C.3    21  TRP21       0.1166
     38  NE1       -5.5580    3.8940   -8.9880 N.pl3  21  TRP21      -0.2376
     39  CE2       -5.8900    2.6280   -8.5770 C.ar   21  TRP21       0.0614
     40  CZ2       -6.3820    1.5100   -9.2020 C.ar   21  TRP21       0.0158
     41  CH2       -6.8100    0.4000   -8.5950 C.ar   21  TRP21       0.0013
     42  CZ3       -6.8190    0.4660   -7.1640 C.ar   21  TRP21      -0.0002
     43  CE3       -6.3210    1.6010   -6.4690 C.ar   21  TRP21      -0.0030
     44  CD2       -5.8180    2.6990   -7.1070 C.ar   21  TRP21      -0.0059
     45  C         -2.6350    5.2710   -5.8620 C.2    21  TRP21       0.3842
     46  O         -2.0630    4.6330   -6.7090 O.co2  21  TRP21      -0.2437
     47  OXT       -2.4590    6.4990   -5.7050 O.co2  21  TRP21      -0.2437
@<TRIPOS>BOND
     1    40    41   ar
     2    40    39   ar
     3    41    42   ar
     4    39    38    1
     5    39    44   ar
     6    42    43   ar
     7    38    37    1
     8    43    44   ar
     9    44    36    1
    10    37    36    1
    11    36    35    1
    12    47    45   ar
    13     5     4    1
    14    35    34    1
    15    45    34    1
    16    45    46   ar
    17    34    33    1
    18     8     7    2
    19     4     6    1
    20     4     3    1
    21     2     3    1
    22     2     1    1
    23     2     7    1
    24     7     9   am
    25    33    31   am
    26    32    31    2
    27    31    26    1
    28     9    10    1
    29    10    11    1
    30    10    15    1
    31    26    27    1
    32    26    25    1
    33    11    12    1
    34    13    12   ar
    35    27    29    1
    36    27    28    1
    37    29    30    1
    38    16    15    2
    39    15    17   am
    40    12    14   ar
    41    25    23   am
    42    17    18    1
    43    23    24    2
    44    23    18    1
    45    18    19    1
    46    19    21    1
    47    19    20    1
    48    21    22    1
