@<TRIPOS>MOLECULE
../ET1/ET1_17-21_50CONFORMERS_NOBACKBONE.pdb
 26 23 0 0 0
SMALL
GASTEIGER

@<TRIPOS>ATOM
      1  CB        -6.1310   -1.8090   -0.5270 C.3    17  LEU17       0.0000
      2  CG        -7.4070   -2.7000   -0.5300 C.3    17  LEU17       0.0000
      3  CD1       -7.7160   -3.1950   -1.9390 C.3    17  LEU17       0.0000
      4  CD2       -7.2270   -3.7850    0.5500 C.3    17  LEU17       0.0000
      5  CB        -9.5320    1.0750    0.8580 C.3    18  ASP18       0.1258
      6  CG       -10.7800    2.0020    0.9270 C.2    18  ASP18       0.3654
      7  OD1      -11.6450    1.9960    0.0150 O.co2  18  ASP18      -0.2456
      8  OD2      -10.9480    2.6740    1.9790 O.co2  18  ASP18      -0.2456
      9  CB        -5.5200    4.0560    3.1630 C.3    19  ILE19       0.0000
     10  CG2       -4.6340    5.2440    3.6770 C.3    19  ILE19       0.0000
     11  CG1       -6.3440    3.4570    4.3090 C.3    19  ILE19       0.0000
     12  CD1       -5.5140    2.5520    5.2940 C.3    19  ILE19       0.0000
     13  CB        -2.7570    4.7950   -1.0380 C.3    20  ILE20       0.0000
     14  CG2       -2.0870    5.2180   -2.4190 C.3    20  ILE20       0.0000
     15  CG1       -2.0630    5.5960    0.0600 C.3    20  ILE20       0.0000
     16  CD1       -0.5780    5.4070   -0.0470 C.3    20  ILE20       0.0000
     17  CB        -7.6200    3.7070   -3.9320 C.3    21  TRP21       0.0066
     18  CG        -8.3010    2.9550   -4.9610 C.3    21  TRP21       0.0452
     19  CD1       -9.5490    3.2390   -5.4270 C.3    21  TRP21       0.1165
     20  NE1       -9.9110    2.3770   -6.4370 N.pl3  21  TRP21      -0.2376
     21  CE2       -8.8950    1.4430   -6.6670 C.ar   21  TRP21       0.0614
     22  CZ2       -8.6550    0.3710   -7.5990 C.ar   21  TRP21       0.0158
     23  CH2       -7.4400   -0.3430   -7.5640 C.ar   21  TRP21       0.0013
     24  CZ3       -6.5670   -0.0430   -6.5570 C.ar   21  TRP21      -0.0002
     25  CE3       -6.7650    0.9330   -5.6460 C.ar   21  TRP21      -0.0030
     26  CD2       -7.9320    1.7440   -5.7080 C.ar   21  TRP21      -0.0059
@<TRIPOS>BOND
     1    22    23   ar
     2    22    21   ar
     3    23    24   ar
     4    21    20    1
     5    21    26   ar
     6    24    25   ar
     7    20    19    1
     8    25    26   ar
     9    26    18    1
    10    19    18    1
    11    18    17    1
    12     3     2    1
    13     2     4    1
    14     2     1    1
    15     5     6    1
    16     7     6   ar
    17    13    15    1
    18    13    14    1
    19    15    16    1
    20     6     8   ar
    21     9    11    1
    22     9    10    1
    23    11    12    1
@<TRIPOS>MOLECULE
108002
 38 42 0 0 0
SMALL
GASTEIGER

@<TRIPOS>ATOM
      1 O          -9.8154    4.5607   -3.5747 O.co2   1  LIG11      -0.5495
      2 O          -9.7552    3.9703   -5.7570 O.co2   1  LIG11      -0.5495
      3 O          -2.1582    4.4965   -3.6149 O.3     1  LIG11      -0.4920
      4 O          -6.1497    1.2952   -2.1319 O.3     1  LIG11      -0.4858
      5 O          -6.2253   -1.9268   -6.3502 O.3     1  LIG11      -0.4526
      6 O          -7.9939   -2.1553   -7.9733 O.3     1  LIG11      -0.4526
      7 O          -7.8146    2.5682    2.2585 O.3     1  LIG11      -0.4950
      8 O          -4.9395   -0.6171   -0.3901 O.co2   1  LIG11      -0.5463
      9 O          -5.5927   -2.2107   -1.8756 O.co2   1  LIG11      -0.5463
     10 C          -8.0560    3.1144   -4.3034 C.3     1  LIG11       0.0203
     11 C          -7.1557    3.8536   -3.2793 C.3     1  LIG11       0.0218
     12 C          -7.2205    2.9217   -5.6000 C.3     1  LIG11       0.0184
     13 C          -5.7718    3.7515   -3.8733 C.ar    1  LIG11      -0.0320
     14 C          -5.8056    3.2376   -5.1664 C.ar    1  LIG11      -0.0353
     15 C          -7.4220    1.5536   -6.2453 C.ar    1  LIG11      -0.0356
     16 C          -7.2866    3.3958   -1.8301 C.ar    1  LIG11       0.0026
     17 C          -9.3174    3.9576   -4.5695 C.2     1  LIG11       0.0466
     18 C          -4.5788    4.1890   -3.3044 C.ar    1  LIG11      -0.0159
     19 C          -4.6372    3.1378   -5.9119 C.ar    1  LIG11      -0.0542
     20 C          -3.3985    4.0979   -4.0437 C.ar    1  LIG11       0.1208
     21 C          -6.8136    2.1769   -1.3133 C.ar    1  LIG11       0.1283
     22 C          -6.6440    0.4338   -5.9050 C.ar    1  LIG11      -0.0124
     23 C          -8.4541    1.3999   -7.2047 C.ar    1  LIG11      -0.0543
     24 C          -3.4321    3.5539   -5.3367 C.ar    1  LIG11      -0.0196
     25 C          -7.9487    4.2703   -0.9426 C.ar    1  LIG11      -0.0510
     26 C          -6.9013   -0.7621   -6.5431 C.ar    1  LIG11       0.1665
     27 C          -8.7012    0.1729   -7.8283 C.ar    1  LIG11      -0.0159
     28 C          -6.9449    1.8964    0.0581 C.ar    1  LIG11       0.0221
     29 C          -8.1043    3.9650    0.4109 C.ar    1  LIG11      -0.0194
     30 C          -7.9034   -0.8920   -7.4764 C.ar    1  LIG11       0.1662
     31 C          -7.6072    2.7712    0.9184 C.ar    1  LIG11       0.1236
     32 C          -2.1193    5.4245   -2.5295 C.3     1  LIG11       0.0893
     33 C          -6.9781   -2.8170   -7.1886 C.3     1  LIG11       0.2332
     34 C          -6.6226   -0.0723   -2.0341 C.3     1  LIG11       0.1287
     35 C          -1.9401    4.7053   -1.1950 C.3     1  LIG11      -0.0215
     36 C          -5.5988   -1.0369   -1.3855 C.2     1  LIG11       0.0789
     37 C          -7.6301    1.2272    2.7043 C.3     1  LIG11       0.0788
     38 C          -1.9507    5.6838   -0.0334 C.3     1  LIG11      -0.0622
@<TRIPOS>BOND
     1     1    17   ar
     2     2    17   ar
     3     3    20    1
     4     3    32    1
     5     4    21    1
     6     4    34    1
     7     5    26    1
     8     5    33    1
     9     6    30    1
    10     6    33    1
    11     7    31    1
    12     7    37    1
    13     8    36   ar
    14     9    36   ar
    15    10    11    1
    16    10    12    1
    17    10    17    1
    18    11    13    1
    19    11    16    1
    20    12    14    1
    21    12    15    1
    22    13    14   ar
    23    13    18   ar
    24    14    19   ar
    25    15    22   ar
    26    15    23   ar
    27    16    21   ar
    28    16    25   ar
    29    18    20   ar
    30    19    24   ar
    31    20    24   ar
    32    21    28   ar
    33    22    26   ar
    34    23    27   ar
    35    25    29   ar
    36    26    30   ar
    37    27    30   ar
    38    28    31   ar
    39    29    31   ar
    40    32    35    1
    41    34    36    1
    42    35    38    1
@<TRIPOS>MOLECULE
../ET1/ET1_17-21_50CONFORMERS.pdb
 47 48 0 0 0
SMALL
GASTEIGER

@<TRIPOS>ATOM
      1  N         -4.7730    0.0050   -1.4620 N.3    17  LEU17      -0.1231
      2  CA        -6.0920   -0.6930   -1.5710 C.3    17  LEU17       0.1693
      3  CB        -6.1310   -1.8090   -0.5270 C.3    17  LEU17       0.0284
      4  CG        -7.4070   -2.7000   -0.5300 C.3    17  LEU17       0.0019
      5  CD1       -7.7160   -3.1950   -1.9390 C.3    17  LEU17       0.0001
      6  CD2       -7.2270   -3.7850    0.5500 C.3    17  LEU17       0.0001
      7  C         -7.2220    0.3070   -1.6030 C.2    17  LEU17       0.2592
      8  O         -8.0160    0.3050   -2.5560 O.2    17  LEU17      -0.2718
      9  N         -7.4110    0.9590   -0.4240 N.am   18  ASP18      -0.1960
     10  CA        -8.5230    1.8150   -0.0260 C.3    18  ASP18       0.1840
     11  CB        -9.5320    1.0750    0.8580 C.3    18  ASP18       0.1450
     12  CG       -10.7800    2.0020    0.9270 C.2    18  ASP18       0.3671
     13  OD1      -11.6450    1.9960    0.0150 O.co2  18  ASP18      -0.2456
     14  OD2      -10.9480    2.6740    1.9790 O.co2  18  ASP18      -0.2456
     15  C         -8.1630    3.1480    0.5720 C.2    18  ASP18       0.2622
     16  O         -8.4870    4.2060    0.0570 O.2    18  ASP18      -0.2715
     17  N         -7.1580    3.1700    1.4870 N.am   19  ILE19      -0.1963
     18  CA        -6.5010    4.4100    2.0140 C.3    19  ILE19       0.1727
     19  CB        -5.5200    4.0560    3.1630 C.3    19  ILE19       0.0290
     20  CG2       -4.6340    5.2440    3.6770 C.3    19  ILE19       0.0023
     21  CG1       -6.3440    3.4570    4.3090 C.3    19  ILE19       0.0022
     22  CD1       -5.5140    2.5520    5.2940 C.3    19  ILE19       0.0001
     23  C         -5.8540    5.2020    0.9170 C.2    19  ILE19       0.2616
     24  O         -6.0890    6.3900    0.7170 O.2    19  ILE19      -0.2715
     25  N         -4.9340    4.5760    0.1200 N.am   20  ILE20      -0.1963
     26  CA        -4.3050    5.0560   -1.1210 C.3    20  ILE20       0.1727
     27  CB        -2.7570    4.7950   -1.0380 C.3    20  ILE20       0.0290
     28  CG2       -2.0870    5.2180   -2.4190 C.3    20  ILE20       0.0023
     29  CG1       -2.0630    5.5960    0.0600 C.3    20  ILE20       0.0022
     30  CD1       -0.5780    5.4070   -0.0470 C.3    20  ILE20       0.0001
     31  C         -5.0000    4.2460   -2.2800 C.2    20  ILE20       0.2617
     32  O         -4.8970    3.0140   -2.3930 O.2    20  ILE20      -0.2715
     33  N         -5.6430    4.9710   -3.2380 N.am   21  TRP21      -0.1941
     34  CA        -6.2760    4.3970   -4.3640 C.3    21  TRP21       0.1982
     35  CB        -7.6200    3.7070   -3.9320 C.3    21  TRP21       0.0394
     36  CG        -8.3010    2.9550   -4.9610 C.3    21  TRP21       0.0475
     37  CD1       -9.5490    3.2390   -5.4270 C.3    21  TRP21       0.1166
     38  NE1       -9.9110    2.3770   -6.4370 N.pl3  21  TRP21      -0.2376
     39  CE2       -8.8950    1.4430   -6.6670 C.ar   21  TRP21       0.0614
     40  CZ2       -8.6550    0.3710   -7.5990 C.ar   21  TRP21       0.0158
     41  CH2       -7.4400   -0.3430   -7.5640 C.ar   21  TRP21       0.0013
     42  CZ3       -6.5670   -0.0430   -6.5570 C.ar   21  TRP21      -0.0002
     43  CE3       -6.7650    0.9330   -5.6460 C.ar   21  TRP21      -0.0030
     44  CD2       -7.9320    1.7440   -5.7080 C.ar   21  TRP21      -0.0059
     45  C         -6.6270    5.5290   -5.4110 C.2    21  TRP21       0.3842
     46  O         -6.5990    5.2250   -6.6440 O.co2  21  TRP21      -0.2437
     47  OXT       -7.0570    6.6710   -5.0490 O.co2  21  TRP21      -0.2437
@<TRIPOS>BOND
     1    40    41   ar
     2    40    39   ar
     3    41    42   ar
     4    39    38    1
     5    39    44   ar
     6    42    43   ar
     7    38    37    1
     8    43    44   ar
     9    44    36    1
    10    37    36    1
    11    36    35    1
    12    47    45   ar
    13     5     4    1
    14    35    34    1
    15    45    34    1
    16    45    46   ar
    17    34    33    1
    18     8     7    2
    19     4     6    1
    20     4     3    1
    21     2     3    1
    22     2     1    1
    23     2     7    1
    24     7     9   am
    25    33    31   am
    26    32    31    2
    27    31    26    1
    28     9    10    1
    29    10    11    1
    30    10    15    1
    31    26    27    1
    32    26    25    1
    33    11    12    1
    34    13    12   ar
    35    27    29    1
    36    27    28    1
    37    29    30    1
    38    16    15    2
    39    15    17   am
    40    12    14   ar
    41    25    23   am
    42    17    18    1
    43    23    24    2
    44    23    18    1
    45    18    19    1
    46    19    21    1
    47    19    20    1
    48    21    22    1
