@<TRIPOS>MOLECULE
../ET1/ET1_17-21_50CONFORMERS_NOBACKBONE.pdb
 26 23 0 0 0
SMALL
GASTEIGER

@<TRIPOS>ATOM
      1  CB        -5.7740   -2.1850   -1.8010 C.3    17  LEU17       0.0000
      2  CG        -6.9730   -3.0400   -2.3010 C.3    17  LEU17       0.0000
      3  CD1       -7.0380   -3.1120   -3.8320 C.3    17  LEU17       0.0000
      4  CD2       -6.9160   -4.4500   -1.6960 C.3    17  LEU17       0.0000
      5  CB        -8.6890    0.3280    1.2400 C.3    18  ASP18       0.1258
      6  CG        -9.9040    1.0180    1.8870 C.2    18  ASP18       0.3654
      7  OD1      -10.9400    1.1270    1.1180 O.co2  18  ASP18      -0.2456
      8  OD2       -9.7800    1.5670    3.0200 O.co2  18  ASP18      -0.2456
      9  CB        -4.7730    3.3050    3.0570 C.3    19  ILE19       0.0000
     10  CG2       -4.3870    4.6610    3.7150 C.3    19  ILE19       0.0000
     11  CG1       -5.3220    2.3630    4.1240 C.3    19  ILE19       0.0000
     12  CD1       -4.2790    1.8480    5.0560 C.3    19  ILE19       0.0000
     13  CB        -2.5980    5.5530   -0.8540 C.3    20  ILE20       0.0000
     14  CG2       -2.5980    6.4730    0.3870 C.3    20  ILE20       0.0000
     15  CG1       -1.4640    4.4600   -0.7860 C.3    20  ILE20       0.0000
     16  CD1       -0.0160    4.9670   -0.5140 C.3    20  ILE20       0.0000
     17  CB        -5.9260    3.7390   -5.1840 C.3    21  TRP21       0.0066
     18  CG        -5.9010    3.1210   -6.5030 C.3    21  TRP21       0.0452
     19  CD1       -6.0680    3.7010   -7.7080 C.3    21  TRP21       0.1165
     20  NE1       -5.8760    2.7770   -8.6880 N.pl3  21  TRP21      -0.2376
     21  CE2       -5.7640    1.5040   -8.1680 C.ar   21  TRP21       0.0614
     22  CZ2       -5.5460    0.2490   -8.7610 C.ar   21  TRP21       0.0158
     23  CH2       -5.2900   -0.8980   -8.0090 C.ar   21  TRP21       0.0013
     24  CZ3       -5.2420   -0.7750   -6.5670 C.ar   21  TRP21      -0.0002
     25  CE3       -5.5730    0.4840   -5.9960 C.ar   21  TRP21      -0.0030
     26  CD2       -5.8070    1.6510   -6.7420 C.ar   21  TRP21      -0.0059
@<TRIPOS>BOND
     1    22    23   ar
     2    22    21   ar
     3    23    24   ar
     4    21    20    1
     5    21    26   ar
     6    24    25   ar
     7    20    19    1
     8    25    26   ar
     9    26    18    1
    10    19    18    1
    11    18    17    1
    12     3     2    1
    13     2     4    1
    14     2     1    1
    15     5     6    1
    16     7     6   ar
    17    13    15    1
    18    13    14    1
    19    15    16    1
    20     6     8   ar
    21     9    11    1
    22     9    10    1
    23    11    12    1
@<TRIPOS>MOLECULE
9911482
 30 32 0 0 0
SMALL
GASTEIGER

@<TRIPOS>ATOM
      1 S          -3.4655    1.1112   -0.8834 S.O2    1  LIG11       0.0758
      2 S          -7.4444    2.0935   -2.0357 S.2     1  LIG11      -0.0902
      3 O          -3.9617   -1.0338    1.3198 O.2     1  LIG11      -0.3377
      4 O          -2.8452    1.6863   -2.0564 O.2     1  LIG11      -0.1499
      5 O          -3.0868    1.5197    0.4511 O.2     1  LIG11      -0.1499
      6 O          -4.7457   -0.3084   -3.3309 O.2     1  LIG11      -0.2692
      7 O          -4.1671    3.4748   -7.3215 O.2     1  LIG11      -0.2923
      8 N          -6.0617    1.1435   -4.5569 N.am    1  LIG11      -0.2802
      9 N          -3.4534   -0.5659   -1.0426 N.pl3   1  LIG11      -0.1831
     10 N          -4.8084   -1.8459    2.0457 N.ar    1  LIG11      -0.0810
     11 C          -5.7954    0.6429   -5.8546 C.ar    1  LIG11       0.0471
     12 C          -5.1231    1.6288   -1.0522 C.ar    1  LIG11       0.1277
     13 C          -5.9504   -0.7345   -6.1469 C.ar    1  LIG11      -0.0283
     14 C          -5.4027    1.5173   -6.8956 C.ar    1  LIG11       0.0388
     15 C          -5.8796    1.4022   -2.1897 C.ar    1  LIG11       0.1007
     16 C          -5.2136   -0.3595   -8.4504 C.ar    1  LIG11      -0.0494
     17 C          -5.6339   -1.2160   -7.4343 C.ar    1  LIG11      -0.0541
     18 C          -5.1030    1.0032   -8.1726 C.ar    1  LIG11      -0.0466
     19 C          -5.5113    0.6504   -3.3855 C.2     1  LIG11       0.2568
     20 C          -4.1564   -1.2379   -0.0101 C.ar    1  LIG11       0.2399
     21 C          -5.8423    2.3448   -0.0476 C.ar    1  LIG11      -0.0273
     22 C          -5.1447   -2.1841   -0.1873 C.ar    1  LIG11       0.0350
     23 C          -6.4680   -1.7568   -5.1675 C.3     1  LIG11      -0.0379
     24 C          -5.1397    2.9813   -6.7518 C.2     1  LIG11       0.1619
     25 C          -5.5132   -2.5343    1.1425 C.ar    1  LIG11       0.0854
     26 C          -7.1214    2.6524   -0.4535 C.ar    1  LIG11      -0.0217
     27 C          -4.8653   -0.8797   -9.8141 C.3     1  LIG11      -0.0397
     28 C          -5.7435   -2.6717   -1.4502 C.3     1  LIG11      -0.0330
     29 C          -6.5519   -3.4875    1.5969 C.3     1  LIG11      -0.0188
     30 C          -6.0778    3.8515   -5.9621 C.3     1  LIG11      -0.0013
@<TRIPOS>BOND
     1     1     4    2
     2     1     5    2
     3     1     9    1
     4     1    12    1
     5     2    15   ar
     6     2    26   ar
     7     3    10   ar
     8     3    20   ar
     9     6    19    2
    10     7    24    2
    11     8    11    1
    12     8    19   am
    13     9    20    1
    14    10    25   ar
    15    11    13   ar
    16    11    14   ar
    17    12    15   ar
    18    12    21   ar
    19    13    17   ar
    20    13    23    1
    21    14    18   ar
    22    14    24    1
    23    15    19    1
    24    16    17   ar
    25    16    18   ar
    26    16    27    1
    27    20    22   ar
    28    21    26   ar
    29    22    25   ar
    30    22    28    1
    31    24    30    1
    32    25    29    1
@<TRIPOS>MOLECULE
../ET1/ET1_17-21_50CONFORMERS.pdb
 47 48 0 0 0
SMALL
GASTEIGER

@<TRIPOS>ATOM
      1  N         -4.3650   -0.0780   -2.0530 N.3    17  LEU17      -0.1231
      2  CA        -5.6590   -0.7500   -2.3480 C.3    17  LEU17       0.1693
      3  CB        -5.7740   -2.1850   -1.8010 C.3    17  LEU17       0.0284
      4  CG        -6.9730   -3.0400   -2.3010 C.3    17  LEU17       0.0019
      5  CD1       -7.0380   -3.1120   -3.8320 C.3    17  LEU17       0.0001
      6  CD2       -6.9160   -4.4500   -1.6960 C.3    17  LEU17       0.0001
      7  C         -6.7880    0.1920   -1.8560 C.2    17  LEU17       0.2592
      8  O         -7.4750    0.7830   -2.6010 O.2    17  LEU17      -0.2718
      9  N         -6.9990    0.3220   -0.5550 N.am   18  ASP18      -0.1960
     10  CA        -8.0310    1.0970    0.1460 C.3    18  ASP18       0.1840
     11  CB        -8.6890    0.3280    1.2400 C.3    18  ASP18       0.1450
     12  CG        -9.9040    1.0180    1.8870 C.2    18  ASP18       0.3671
     13  OD1      -10.9400    1.1270    1.1180 O.co2  18  ASP18      -0.2456
     14  OD2       -9.7800    1.5670    3.0200 O.co2  18  ASP18      -0.2456
     15  C         -7.4780    2.4380    0.6840 C.2    18  ASP18       0.2622
     16  O         -8.1400    3.4460    0.4410 O.2    18  ASP18      -0.2715
     17  N         -6.3660    2.4120    1.3190 N.am   19  ILE19      -0.1963
     18  CA        -5.8470    3.6340    1.9890 C.3    19  ILE19       0.1727
     19  CB        -4.7730    3.3050    3.0570 C.3    19  ILE19       0.0290
     20  CG2       -4.3870    4.6610    3.7150 C.3    19  ILE19       0.0023
     21  CG1       -5.3220    2.3630    4.1240 C.3    19  ILE19       0.0022
     22  CD1       -4.2790    1.8480    5.0560 C.3    19  ILE19       0.0001
     23  C         -5.3040    4.6460    0.9710 C.2    19  ILE19       0.2616
     24  O         -5.6260    5.8410    0.9770 O.2    19  ILE19      -0.2715
     25  N         -4.5100    4.1660   -0.0070 N.am   20  ILE20      -0.1963
     26  CA        -4.0240    4.9420   -1.1520 C.3    20  ILE20       0.1727
     27  CB        -2.5980    5.5530   -0.8540 C.3    20  ILE20       0.0290
     28  CG2       -2.5980    6.4730    0.3870 C.3    20  ILE20       0.0023
     29  CG1       -1.4640    4.4600   -0.7860 C.3    20  ILE20       0.0022
     30  CD1       -0.0160    4.9670   -0.5140 C.3    20  ILE20       0.0001
     31  C         -4.0810    4.2920   -2.5160 C.2    20  ILE20       0.2617
     32  O         -3.6080    3.1740   -2.7100 O.2    20  ILE20      -0.2715
     33  N         -4.6440    4.9650   -3.4850 N.am   21  TRP21      -0.1941
     34  CA        -4.6590    4.6180   -4.9280 C.3    21  TRP21       0.1982
     35  CB        -5.9260    3.7390   -5.1840 C.3    21  TRP21       0.0394
     36  CG        -5.9010    3.1210   -6.5030 C.3    21  TRP21       0.0475
     37  CD1       -6.0680    3.7010   -7.7080 C.3    21  TRP21       0.1166
     38  NE1       -5.8760    2.7770   -8.6880 N.pl3  21  TRP21      -0.2376
     39  CE2       -5.7640    1.5040   -8.1680 C.ar   21  TRP21       0.0614
     40  CZ2       -5.5460    0.2490   -8.7610 C.ar   21  TRP21       0.0158
     41  CH2       -5.2900   -0.8980   -8.0090 C.ar   21  TRP21       0.0013
     42  CZ3       -5.2420   -0.7750   -6.5670 C.ar   21  TRP21      -0.0002
     43  CE3       -5.5730    0.4840   -5.9960 C.ar   21  TRP21      -0.0030
     44  CD2       -5.8070    1.6510   -6.7420 C.ar   21  TRP21      -0.0059
     45  C         -4.5600    5.8130   -5.7870 C.2    21  TRP21       0.3842
     46  O         -5.1980    6.8360   -5.4540 O.co2  21  TRP21      -0.2437
     47  OXT       -3.7970    5.7850   -6.7770 O.co2  21  TRP21      -0.2437
@<TRIPOS>BOND
     1    40    41   ar
     2    40    39   ar
     3    41    42   ar
     4    39    38    1
     5    39    44   ar
     6    42    43   ar
     7    38    37    1
     8    43    44   ar
     9    44    36    1
    10    37    36    1
    11    36    35    1
    12    47    45   ar
    13     5     4    1
    14    35    34    1
    15    45    34    1
    16    45    46   ar
    17    34    33    1
    18     8     7    2
    19     4     6    1
    20     4     3    1
    21     2     3    1
    22     2     1    1
    23     2     7    1
    24     7     9   am
    25    33    31   am
    26    32    31    2
    27    31    26    1
    28     9    10    1
    29    10    11    1
    30    10    15    1
    31    26    27    1
    32    26    25    1
    33    11    12    1
    34    13    12   ar
    35    27    29    1
    36    27    28    1
    37    29    30    1
    38    16    15    2
    39    15    17   am
    40    12    14   ar
    41    25    23   am
    42    17    18    1
    43    23    24    2
    44    23    18    1
    45    18    19    1
    46    19    21    1
    47    19    20    1
    48    21    22    1
