@<TRIPOS>MOLECULE
../ET1/ET1_17-21_50CONFORMERS_NOBACKBONE.pdb
 26 23 0 0 0
SMALL
GASTEIGER

@<TRIPOS>ATOM
      1  CB        -6.1680   -1.6030   -0.8030 C.3    17  LEU17       0.0000
      2  CG        -7.3010   -2.6660   -0.9890 C.3    17  LEU17       0.0000
      3  CD1       -6.9130   -3.7970   -1.9630 C.3    17  LEU17       0.0000
      4  CD2       -7.4830   -3.2850    0.3370 C.3    17  LEU17       0.0000
      5  CB        -9.3270    1.4400   -1.0160 C.3    18  ASP18       0.1258
      6  CG       -10.6300    2.2090   -1.2500 C.2    18  ASP18       0.3654
      7  OD1      -11.0860    2.2920   -2.4490 O.co2  18  ASP18      -0.2456
      8  OD2      -11.2320    2.7130   -0.3400 O.co2  18  ASP18      -0.2456
      9  CB        -7.2480    4.9270    1.5370 C.3    19  ILE19       0.0000
     10  CG2       -6.8910    6.2680    2.1860 C.3    19  ILE19       0.0000
     11  CG1       -8.6480    4.4460    2.0860 C.3    19  ILE19       0.0000
     12  CD1       -8.7390    4.2860    3.5900 C.3    19  ILE19       0.0000
     13  CB        -2.4540    4.3920    0.1650 C.3    20  ILE20       0.0000
     14  CG2       -0.9250    4.3550   -0.2960 C.3    20  ILE20       0.0000
     15  CG1       -2.3670    5.0710    1.5310 C.3    20  ILE20       0.0000
     16  CD1       -3.4310    4.7860    2.5760 C.3    20  ILE20       0.0000
     17  CB        -4.3330    5.4990   -4.9470 C.3    21  TRP21       0.0066
     18  CG        -4.7390    4.8290   -6.1730 C.3    21  TRP21       0.0452
     19  CD1       -4.3830    5.3150   -7.3710 C.3    21  TRP21       0.1165
     20  NE1       -4.8840    4.4920   -8.3410 N.pl3  21  TRP21      -0.2376
     21  CE2       -5.5200    3.3960   -7.8350 C.ar   21  TRP21       0.0614
     22  CZ2       -6.2050    2.3030   -8.4580 C.ar   21  TRP21       0.0158
     23  CH2       -6.8150    1.3270   -7.6190 C.ar   21  TRP21       0.0013
     24  CZ3       -6.9630    1.6000   -6.2310 C.ar   21  TRP21      -0.0002
     25  CE3       -6.3060    2.7150   -5.5920 C.ar   21  TRP21      -0.0030
     26  CD2       -5.5210    3.6010   -6.4020 C.ar   21  TRP21      -0.0059
@<TRIPOS>BOND
     1    22    23   ar
     2    22    21   ar
     3    23    24   ar
     4    21    20    1
     5    21    26   ar
     6    24    25   ar
     7    20    19    1
     8    25    26   ar
     9    26    18    1
    10    19    18    1
    11    18    17    1
    12     3     2    1
    13     2     4    1
    14     2     1    1
    15     5     6    1
    16     7     6   ar
    17    13    15    1
    18    13    14    1
    19    15    16    1
    20     6     8   ar
    21     9    11    1
    22     9    10    1
    23    11    12    1
@<TRIPOS>MOLECULE
23693553
 46 48 0 0 0
SMALL
GASTEIGER

@<TRIPOS>ATOM
      1 O          -5.3565    1.1057    0.9768 O.2     1  LIG11      -0.2526
      2 O          -8.4139   -0.4120   -1.3510 O.2     1  LIG11      -0.2731
      3 O          -5.7307    1.5773   -3.0461 O.2     1  LIG11      -0.2689
      4 O         -10.4484    1.3617    0.2184 O.co2   1  LIG11      -0.5479
      5 OXT       -10.3996    2.0046   -1.9915 O.co2   1  LIG11      -0.5479
      6 O         -10.1820   -0.2923   -6.3235 O.3     1  LIG11      -0.4515
      7 O          -8.5288   -0.6719   -7.8956 O.2     1  LIG11      -0.2227
      8 N          -3.5311    2.0049   -0.1027 N.am    1  LIG11      -0.2801
      9 N          -4.8182    0.3025   -1.0665 N.am    1  LIG11      -0.2879
     10 N          -7.3723    1.6154   -1.4288 N.am    1  LIG11      -0.2273
     11 N          -6.8718    4.6995   -1.8651 N.3     1  LIG11       0.2276
     12 N          -8.3776    1.0850   -6.4085 N.ar    1  LIG11      -0.2526
     13 C          -2.5522    1.9846   -1.2190 C.3     1  LIG11       0.0249
     14 C          -3.3752    2.9514    1.0244 C.3     1  LIG11       0.0249
     15 C          -1.6491    3.2231   -1.3101 C.3     1  LIG11      -0.0344
     16 C          -2.5373    4.2075    0.7352 C.3     1  LIG11      -0.0344
     17 C          -2.3332    4.4522   -0.7466 C.3     1  LIG11      -0.0497
     18 CA         -6.0117   -0.5545   -1.1974 C.3     1  LIG11       0.1019
     19 C          -6.8128   -3.0082   -0.3756 C.3     1  LIG11      -0.0356
     20 C          -5.9800   -1.6993   -0.1523 C.3     1  LIG11      -0.0210
     21 C          -4.6002    1.1089    0.0082 C.2     1  LIG11       0.3033
     22 C          -1.6862    0.7211   -1.2206 C.3     1  LIG11      -0.0464
     23 C          -2.8659    2.2666    2.2987 C.3     1  LIG11      -0.0464
     24 C          -7.3647    0.2229   -1.2685 C.2     1  LIG11       0.2429
     25 C          -6.9580   -3.3934   -1.8556 C.3     1  LIG11      -0.0600
     26 C          -6.0719   -4.1643    0.3403 C.3     1  LIG11      -0.0600
     27 C          -8.2070   -2.9232    0.2785 C.3     1  LIG11      -0.0600
     28 CA         -8.4703    2.3285   -0.7091 C.3     1  LIG11       0.0730
     29 C          -8.0156    2.7817    0.6913 C.3     1  LIG11      -0.0286
     30 C          -6.6505    2.1759   -2.4684 C.2     1  LIG11       0.2708
     31 CA         -6.8776    3.6333   -2.9384 C.3     1  LIG11       0.0579
     32 C          -8.9113    3.9038    1.2456 C.3     1  LIG11      -0.0513
     33 C          -8.0573    3.8034   -3.9033 C.3     1  LIG11       0.0261
     34 C          -9.9109    1.7709   -0.8396 C.2     1  LIG11       0.0626
     35 C          -7.9604    2.8640   -5.0643 C.ar    1  LIG11      -0.0158
     36 C          -8.1925    4.7811    2.2703 C.3     1  LIG11      -0.0558
     37 C          -6.9427    2.8074   -6.0622 C.ar    1  LIG11       0.0038
     38 C          -8.8158    1.8140   -5.3125 C.ar    1  LIG11       0.0202
     39 C          -7.1879    1.6779   -6.8537 C.ar    1  LIG11       0.0598
     40 C          -9.1133    5.8784    2.7863 C.3     1  LIG11      -0.0653
     41 C          -5.8022    3.5967   -6.3357 C.ar    1  LIG11      -0.0523
     42 C          -6.3065    1.3132   -7.8905 C.ar    1  LIG11      -0.0371
     43 C          -4.9255    3.2303   -7.3600 C.ar    1  LIG11      -0.0611
     44 C          -9.0101   -0.0506   -6.9628 C.2     1  LIG11       0.4196
     45 C          -5.1750    2.0984   -8.1229 C.ar    1  LIG11      -0.0598
     46 C         -10.9180   -1.4134   -6.8120 C.3     1  LIG11       0.0835
@<TRIPOS>BOND
     1     1    21    2
     2     2    24    2
     3     3    30    2
     4     4    34   ar
     5     5    34   ar
     6     6    44    1
     7     6    46    1
     8     7    44    2
     9     8    13    1
    10     8    14    1
    11     9    21   am
    12    10    24   am
    13    10    30   am
    14    12    39   ar
    15    12    38   ar
    16    12    44   am
    17    13    15    1
    18    13    22    1
    19    14    16    1
    20    14    23    1
    21    15    17    1
    22    16    17    1
    23    18     9    1
    24    18    24    1
    25    18    20    1
    26    19    20    1
    27    19    27    1
    28    19    26    1
    29    19    25    1
    30    21     8   am
    31    28    34    1
    32    28    29    1
    33    28    10    1
    34    29    32    1
    35    31    33    1
    36    31    11    1
    37    31    30    1
    38    32    36    1
    39    33    35    1
    40    35    38   ar
    41    35    37   ar
    42    36    40    1
    43    37    39   ar
    44    37    41   ar
    45    39    42   ar
    46    41    43   ar
    47    42    45   ar
    48    43    45   ar
@<TRIPOS>MOLECULE
../ET1/ET1_17-21_50CONFORMERS.pdb
 47 48 0 0 0
SMALL
GASTEIGER

@<TRIPOS>ATOM
      1  N         -4.4070   -0.1580   -1.6100 N.3    17  LEU17      -0.1231
      2  CA        -5.6240   -0.8400   -1.9910 C.3    17  LEU17       0.1693
      3  CB        -6.1680   -1.6030   -0.8030 C.3    17  LEU17       0.0284
      4  CG        -7.3010   -2.6660   -0.9890 C.3    17  LEU17       0.0019
      5  CD1       -6.9130   -3.7970   -1.9630 C.3    17  LEU17       0.0001
      6  CD2       -7.4830   -3.2850    0.3370 C.3    17  LEU17       0.0001
      7  C         -6.6870    0.1230   -2.5080 C.2    17  LEU17       0.2592
      8  O         -7.3680   -0.2170   -3.4720 O.2    17  LEU17      -0.2718
      9  N         -7.0550    1.1550   -1.7250 N.am   18  ASP18      -0.1960
     10  CA        -8.2140    1.9780   -1.9970 C.3    18  ASP18       0.1840
     11  CB        -9.3270    1.4400   -1.0160 C.3    18  ASP18       0.1450
     12  CG       -10.6300    2.2090   -1.2500 C.2    18  ASP18       0.3671
     13  OD1      -11.0860    2.2920   -2.4490 O.co2  18  ASP18      -0.2456
     14  OD2      -11.2320    2.7130   -0.3400 O.co2  18  ASP18      -0.2456
     15  C         -7.8840    3.4890   -1.7310 C.2    18  ASP18       0.2622
     16  O         -8.1040    4.2530   -2.6550 O.2    18  ASP18      -0.2715
     17  N         -7.4380    3.8400   -0.5470 N.am   19  ILE19      -0.1963
     18  CA        -7.1780    5.1420    0.0290 C.3    19  ILE19       0.1727
     19  CB        -7.2480    4.9270    1.5370 C.3    19  ILE19       0.0290
     20  CG2       -6.8910    6.2680    2.1860 C.3    19  ILE19       0.0023
     21  CG1       -8.6480    4.4460    2.0860 C.3    19  ILE19       0.0022
     22  CD1       -8.7390    4.2860    3.5900 C.3    19  ILE19       0.0001
     23  C         -5.7780    5.6630   -0.5380 C.2    19  ILE19       0.2616
     24  O         -5.6970    6.7570   -1.0600 O.2    19  ILE19      -0.2715
     25  N         -4.7690    4.8050   -0.3150 N.am   20  ILE20      -0.1963
     26  CA        -3.4620    5.0020   -0.8160 C.3    20  ILE20       0.1727
     27  CB        -2.4540    4.3920    0.1650 C.3    20  ILE20       0.0290
     28  CG2       -0.9250    4.3550   -0.2960 C.3    20  ILE20       0.0023
     29  CG1       -2.3670    5.0710    1.5310 C.3    20  ILE20       0.0022
     30  CD1       -3.4310    4.7860    2.5760 C.3    20  ILE20       0.0001
     31  C         -3.2210    4.4080   -2.1730 C.2    20  ILE20       0.2617
     32  O         -3.6730    3.2860   -2.4590 O.2    20  ILE20      -0.2715
     33  N         -2.7570    5.2530   -3.1090 N.am   21  TRP21      -0.1941
     34  CA        -2.8960    5.1440   -4.5550 C.3    21  TRP21       0.1982
     35  CB        -4.3330    5.4990   -4.9470 C.3    21  TRP21       0.0394
     36  CG        -4.7390    4.8290   -6.1730 C.3    21  TRP21       0.0475
     37  CD1       -4.3830    5.3150   -7.3710 C.3    21  TRP21       0.1166
     38  NE1       -4.8840    4.4920   -8.3410 N.pl3  21  TRP21      -0.2376
     39  CE2       -5.5200    3.3960   -7.8350 C.ar   21  TRP21       0.0614
     40  CZ2       -6.2050    2.3030   -8.4580 C.ar   21  TRP21       0.0158
     41  CH2       -6.8150    1.3270   -7.6190 C.ar   21  TRP21       0.0013
     42  CZ3       -6.9630    1.6000   -6.2310 C.ar   21  TRP21      -0.0002
     43  CE3       -6.3060    2.7150   -5.5920 C.ar   21  TRP21      -0.0030
     44  CD2       -5.5210    3.6010   -6.4020 C.ar   21  TRP21      -0.0059
     45  C         -1.8100    6.0150   -5.1580 C.2    21  TRP21       0.3842
     46  O         -1.3610    5.7820   -6.2550 O.co2  21  TRP21      -0.2437
     47  OXT       -1.2950    6.9770   -4.4370 O.co2  21  TRP21      -0.2437
@<TRIPOS>BOND
     1    40    41   ar
     2    40    39   ar
     3    41    42   ar
     4    39    38    1
     5    39    44   ar
     6    42    43   ar
     7    38    37    1
     8    43    44   ar
     9    44    36    1
    10    37    36    1
    11    36    35    1
    12    47    45   ar
    13     5     4    1
    14    35    34    1
    15    45    34    1
    16    45    46   ar
    17    34    33    1
    18     8     7    2
    19     4     6    1
    20     4     3    1
    21     2     3    1
    22     2     1    1
    23     2     7    1
    24     7     9   am
    25    33    31   am
    26    32    31    2
    27    31    26    1
    28     9    10    1
    29    10    11    1
    30    10    15    1
    31    26    27    1
    32    26    25    1
    33    11    12    1
    34    13    12   ar
    35    27    29    1
    36    27    28    1
    37    29    30    1
    38    16    15    2
    39    15    17   am
    40    12    14   ar
    41    25    23   am
    42    17    18    1
    43    23    24    2
    44    23    18    1
    45    18    19    1
    46    19    21    1
    47    19    20    1
    48    21    22    1
