@<TRIPOS>MOLECULE
../ET1/ET1_17-21_50CONFORMERS_NOBACKBONE.pdb
 26 23 0 0 0
SMALL
GASTEIGER

@<TRIPOS>ATOM
      1  CB        -6.0020   -2.2270   -1.2310 C.3    17  LEU17       0.0000
      2  CG        -7.3710   -2.9650   -1.4330 C.3    17  LEU17       0.0000
      3  CD1       -7.5290   -3.4450   -2.9110 C.3    17  LEU17       0.0000
      4  CD2       -7.4360   -4.1570   -0.4690 C.3    17  LEU17       0.0000
      5  CB        -9.5170    0.6130    0.1180 C.3    18  ASP18       0.1258
      6  CG       -10.8430    1.4700    0.1790 C.2    18  ASP18       0.3654
      7  OD1      -11.0920    1.8770    1.3330 O.co2  18  ASP18      -0.2456
      8  OD2      -11.3930    1.8330   -0.8510 O.co2  18  ASP18      -0.2456
      9  CB        -6.1460    3.8800    2.9000 C.3    19  ILE19       0.0000
     10  CG2       -4.8240    3.1830    2.7840 C.3    19  ILE19       0.0000
     11  CG1       -5.9350    5.0790    3.7960 C.3    19  ILE19       0.0000
     12  CD1       -7.3240    5.4870    4.3970 C.3    19  ILE19       0.0000
     13  CB        -2.7820    5.5750   -0.5870 C.3    20  ILE20       0.0000
     14  CG2       -2.8140    6.5150    0.6480 C.3    20  ILE20       0.0000
     15  CG1       -2.1060    4.2440   -0.2590 C.3    20  ILE20       0.0000
     16  CD1       -0.5670    4.3010   -0.1670 C.3    20  ILE20       0.0000
     17  CB        -6.0840    4.8320   -5.2160 C.3    21  TRP21       0.0066
     18  CG        -6.1980    4.0270   -6.4950 C.3    21  TRP21       0.0452
     19  CD1       -6.3340    4.5860   -7.7240 C.3    21  TRP21       0.1165
     20  NE1       -6.4350    3.5540   -8.6250 N.pl3  21  TRP21      -0.2376
     21  CE2       -6.4260    2.3040   -8.0730 C.ar   21  TRP21       0.0614
     22  CZ2       -6.6810    0.9920   -8.5980 C.ar   21  TRP21       0.0158
     23  CH2       -6.6030   -0.0150   -7.6030 C.ar   21  TRP21       0.0013
     24  CZ3       -6.3590    0.2440   -6.2630 C.ar   21  TRP21      -0.0002
     25  CE3       -6.1580    1.5020   -5.7750 C.ar   21  TRP21      -0.0030
     26  CD2       -6.2580    2.5580   -6.6910 C.ar   21  TRP21      -0.0059
@<TRIPOS>BOND
     1    22    23   ar
     2    22    21   ar
     3    23    24   ar
     4    21    20    1
     5    21    26   ar
     6    24    25   ar
     7    20    19    1
     8    25    26   ar
     9    26    18    1
    10    19    18    1
    11    18    17    1
    12     3     2    1
    13     2     4    1
    14     2     1    1
    15     5     6    1
    16     7     6   ar
    17    13    15    1
    18    13    14    1
    19    15    16    1
    20     6     8   ar
    21     9    11    1
    22     9    10    1
    23    11    12    1
@<TRIPOS>MOLECULE
108002
 38 42 0 0 0
SMALL
GASTEIGER

@<TRIPOS>ATOM
      1 O          -5.8331    6.1321   -7.2702 O.co2   1  LIG11      -0.5495
      2 O          -7.9292    5.2633   -7.3265 O.co2   1  LIG11      -0.5495
      3 O          -1.7082    3.6822   -1.9529 O.3     1  LIG11      -0.4920
      4 O          -6.9073    3.1367   -2.7484 O.3     1  LIG11      -0.4858
      5 O          -6.7951   -1.3164   -5.7091 O.3     1  LIG11      -0.4526
      6 O          -7.5531   -1.4875   -7.9923 O.3     1  LIG11      -0.4526
      7 O          -9.1518    6.6310   -0.2075 O.3     1  LIG11      -0.4950
      8 O          -7.6307    1.8293   -0.3240 O.co2   1  LIG11      -0.5463
      9 O          -8.4068    0.1181   -1.6052 O.co2   1  LIG11      -0.5463
     10 C          -6.3966    4.3827   -5.7494 C.3     1  LIG11       0.0203
     11 C          -5.7631    5.1554   -4.5734 C.3     1  LIG11       0.0218
     12 C          -5.3167    3.4233   -6.3103 C.3     1  LIG11       0.0184
     13 C          -4.5511    4.3256   -4.2244 C.ar    1  LIG11      -0.0320
     14 C          -4.3023    3.3512   -5.1890 C.ar    1  LIG11      -0.0353
     15 C          -5.9103    2.0961   -6.7659 C.ar    1  LIG11      -0.0356
     16 C          -6.7079    5.4381   -3.4087 C.ar    1  LIG11       0.0026
     17 C          -6.7501    5.3550   -6.8764 C.2     1  LIG11       0.0466
     18 C          -3.7056    4.4908   -3.1322 C.ar    1  LIG11      -0.0159
     19 C          -3.2028    2.5116   -5.0669 C.ar    1  LIG11      -0.0542
     20 C          -2.6052    3.6450   -2.9902 C.ar    1  LIG11       0.1208
     21 C          -7.2494    4.4541   -2.5613 C.ar    1  LIG11       0.1283
     22 C          -6.0609    0.9991   -5.9000 C.ar    1  LIG11      -0.0124
     23 C          -6.3695    1.9832   -8.1020 C.ar    1  LIG11      -0.0543
     24 C          -2.3703    2.6482   -3.9502 C.ar    1  LIG11      -0.0196
     25 C          -7.0456    6.7837   -3.1611 C.ar    1  LIG11      -0.0510
     26 C          -6.6103   -0.1613   -6.4027 C.ar    1  LIG11       0.1665
     27 C          -6.9330    0.7969   -8.5824 C.ar    1  LIG11      -0.0159
     28 C          -8.0506    4.8305   -1.4714 C.ar    1  LIG11       0.0221
     29 C          -7.8648    7.1414   -2.0876 C.ar    1  LIG11      -0.0194
     30 C          -7.0352   -0.2610   -7.7067 C.ar    1  LIG11       0.1662
     31 C          -8.3721    6.1660   -1.2357 C.ar    1  LIG11       0.1236
     32 C          -1.6084    4.9174   -1.2411 C.3     1  LIG11       0.0893
     33 C          -7.4677   -2.1151   -6.6946 C.3     1  LIG11       0.2332
     34 C          -8.0134    2.2040   -2.6786 C.3     1  LIG11       0.1287
     35 C          -2.4942    4.9222    0.0034 C.3     1  LIG11      -0.0215
     36 C          -7.9802    1.3014   -1.4208 C.2     1  LIG11       0.0789
     37 C          -9.8037    5.6306    0.5698 C.3     1  LIG11       0.0788
     38 C          -2.4411    6.2668    0.7100 C.3     1  LIG11      -0.0622
@<TRIPOS>BOND
     1     1    17   ar
     2     2    17   ar
     3     3    20    1
     4     3    32    1
     5     4    21    1
     6     4    34    1
     7     5    26    1
     8     5    33    1
     9     6    30    1
    10     6    33    1
    11     7    31    1
    12     7    37    1
    13     8    36   ar
    14     9    36   ar
    15    10    11    1
    16    10    12    1
    17    10    17    1
    18    11    13    1
    19    11    16    1
    20    12    14    1
    21    12    15    1
    22    13    14   ar
    23    13    18   ar
    24    14    19   ar
    25    15    22   ar
    26    15    23   ar
    27    16    21   ar
    28    16    25   ar
    29    18    20   ar
    30    19    24   ar
    31    20    24   ar
    32    21    28   ar
    33    22    26   ar
    34    23    27   ar
    35    25    29   ar
    36    26    30   ar
    37    27    30   ar
    38    28    31   ar
    39    29    31   ar
    40    32    35    1
    41    34    36    1
    42    35    38    1
@<TRIPOS>MOLECULE
../ET1/ET1_17-21_50CONFORMERS.pdb
 47 48 0 0 0
SMALL
GASTEIGER

@<TRIPOS>ATOM
      1  N         -4.6550   -0.1730   -1.5130 N.3    17  LEU17      -0.1231
      2  CA        -5.7500   -0.8780   -1.9930 C.3    17  LEU17       0.1693
      3  CB        -6.0020   -2.2270   -1.2310 C.3    17  LEU17       0.0284
      4  CG        -7.3710   -2.9650   -1.4330 C.3    17  LEU17       0.0019
      5  CD1       -7.5290   -3.4450   -2.9110 C.3    17  LEU17       0.0001
      6  CD2       -7.4360   -4.1570   -0.4690 C.3    17  LEU17       0.0001
      7  C         -7.0180   -0.0160   -2.0430 C.2    17  LEU17       0.2592
      8  O         -7.7430    0.0880   -3.0540 O.2    17  LEU17      -0.2718
      9  N         -7.3130    0.6360   -0.9530 N.am   18  ASP18      -0.1960
     10  CA        -8.4730    1.4080   -0.6790 C.3    18  ASP18       0.1840
     11  CB        -9.5170    0.6130    0.1180 C.3    18  ASP18       0.1450
     12  CG       -10.8430    1.4700    0.1790 C.2    18  ASP18       0.3671
     13  OD1      -11.0920    1.8770    1.3330 O.co2  18  ASP18      -0.2456
     14  OD2      -11.3930    1.8330   -0.8510 O.co2  18  ASP18      -0.2456
     15  C         -8.0330    2.8100   -0.1820 C.2    18  ASP18       0.2622
     16  O         -8.5770    3.8010   -0.7010 O.2    18  ASP18      -0.2715
     17  N         -7.1100    2.9300    0.8120 N.am   19  ILE19      -0.1963
     18  CA        -6.7750    4.1770    1.4800 C.3    19  ILE19       0.1727
     19  CB        -6.1460    3.8800    2.9000 C.3    19  ILE19       0.0290
     20  CG2       -4.8240    3.1830    2.7840 C.3    19  ILE19       0.0023
     21  CG1       -5.9350    5.0790    3.7960 C.3    19  ILE19       0.0022
     22  CD1       -7.3240    5.4870    4.3970 C.3    19  ILE19       0.0001
     23  C         -5.9940    5.1560    0.6410 C.2    19  ILE19       0.2616
     24  O         -6.3260    6.3150    0.6450 O.2    19  ILE19      -0.2715
     25  N         -4.9930    4.6300   -0.1030 N.am   20  ILE20      -0.1963
     26  CA        -4.2000    5.4050   -1.0760 C.3    20  ILE20       0.1727
     27  CB        -2.7820    5.5750   -0.5870 C.3    20  ILE20       0.0290
     28  CG2       -2.8140    6.5150    0.6480 C.3    20  ILE20       0.0023
     29  CG1       -2.1060    4.2440   -0.2590 C.3    20  ILE20       0.0022
     30  CD1       -0.5670    4.3010   -0.1670 C.3    20  ILE20       0.0001
     31  C         -4.2600    4.8360   -2.4960 C.2    20  ILE20       0.2617
     32  O         -4.1160    3.6330   -2.6780 O.2    20  ILE20      -0.2715
     33  N         -4.5390    5.7320   -3.4330 N.am   21  TRP21      -0.1941
     34  CA        -4.6520    5.3150   -4.8920 C.3    21  TRP21       0.1982
     35  CB        -6.0840    4.8320   -5.2160 C.3    21  TRP21       0.0394
     36  CG        -6.1980    4.0270   -6.4950 C.3    21  TRP21       0.0475
     37  CD1       -6.3340    4.5860   -7.7240 C.3    21  TRP21       0.1166
     38  NE1       -6.4350    3.5540   -8.6250 N.pl3  21  TRP21      -0.2376
     39  CE2       -6.4260    2.3040   -8.0730 C.ar   21  TRP21       0.0614
     40  CZ2       -6.6810    0.9920   -8.5980 C.ar   21  TRP21       0.0158
     41  CH2       -6.6030   -0.0150   -7.6030 C.ar   21  TRP21       0.0013
     42  CZ3       -6.3590    0.2440   -6.2630 C.ar   21  TRP21      -0.0002
     43  CE3       -6.1580    1.5020   -5.7750 C.ar   21  TRP21      -0.0030
     44  CD2       -6.2580    2.5580   -6.6910 C.ar   21  TRP21      -0.0059
     45  C         -4.2770    6.3840   -5.8570 C.2    21  TRP21       0.3842
     46  O         -4.8300    7.4910   -5.8770 O.co2  21  TRP21      -0.2437
     47  OXT       -3.3280    6.1200   -6.6660 O.co2  21  TRP21      -0.2437
@<TRIPOS>BOND
     1    40    41   ar
     2    40    39   ar
     3    41    42   ar
     4    39    38    1
     5    39    44   ar
     6    42    43   ar
     7    38    37    1
     8    43    44   ar
     9    44    36    1
    10    37    36    1
    11    36    35    1
    12    47    45   ar
    13     5     4    1
    14    35    34    1
    15    45    34    1
    16    45    46   ar
    17    34    33    1
    18     8     7    2
    19     4     6    1
    20     4     3    1
    21     2     3    1
    22     2     1    1
    23     2     7    1
    24     7     9   am
    25    33    31   am
    26    32    31    2
    27    31    26    1
    28     9    10    1
    29    10    11    1
    30    10    15    1
    31    26    27    1
    32    26    25    1
    33    11    12    1
    34    13    12   ar
    35    27    29    1
    36    27    28    1
    37    29    30    1
    38    16    15    2
    39    15    17   am
    40    12    14   ar
    41    25    23   am
    42    17    18    1
    43    23    24    2
    44    23    18    1
    45    18    19    1
    46    19    21    1
    47    19    20    1
    48    21    22    1
