@<TRIPOS>MOLECULE
../ET1/ET1_17-21_50CONFORMERS_NOBACKBONE.pdb
 26 23 0 0 0
SMALL
GASTEIGER

@<TRIPOS>ATOM
      1  CB        -6.2200   -2.0150   -2.2660 C.3    17  LEU17       0.0000
      2  CG        -7.4870   -2.7880   -2.7410 C.3    17  LEU17       0.0000
      3  CD1       -7.7560   -2.6580   -4.2950 C.3    17  LEU17       0.0000
      4  CD2       -7.2700   -4.2410   -2.4020 C.3    17  LEU17       0.0000
      5  CB        -9.2830    0.1420    0.9540 C.3    18  ASP18       0.1258
      6  CG       -10.4660    0.8060    1.7740 C.2    18  ASP18       0.3654
      7  OD1      -11.2950    1.5080    1.1310 O.co2  18  ASP18      -0.2456
      8  OD2      -10.5110    0.6630    3.0340 O.co2  18  ASP18      -0.2456
      9  CB        -5.1350    2.6390    3.5580 C.3    19  ILE19       0.0000
     10  CG2       -4.5740    3.8120    4.3410 C.3    19  ILE19       0.0000
     11  CG1       -5.7500    1.6370    4.5180 C.3    19  ILE19       0.0000
     12  CD1       -4.7460    0.7600    5.2450 C.3    19  ILE19       0.0000
     13  CB        -2.6220    4.7690   -0.2970 C.3    20  ILE20       0.0000
     14  CG2       -2.2290    5.8150   -1.3590 C.3    20  ILE20       0.0000
     15  CG1       -2.1680    5.1420    1.1400 C.3    20  ILE20       0.0000
     16  CD1       -0.6600    5.3030    1.3390 C.3    20  ILE20       0.0000
     17  CB        -7.1750    4.4700   -3.9070 C.3    21  TRP21       0.0066
     18  CG        -7.5360    3.9570   -5.2690 C.3    21  TRP21       0.0452
     19  CD1       -8.1900    4.7020   -6.2020 C.3    21  TRP21       0.1165
     20  NE1       -8.4500    3.9790   -7.3380 N.pl3  21  TRP21      -0.2376
     21  CE2       -7.7020    2.8280   -7.2740 C.ar   21  TRP21       0.0614
     22  CZ2       -7.5760    1.8010   -8.2060 C.ar   21  TRP21       0.0158
     23  CH2       -6.9090    0.6250   -7.7970 C.ar   21  TRP21       0.0013
     24  CZ3       -6.5580    0.4430   -6.4490 C.ar   21  TRP21      -0.0002
     25  CE3       -6.6670    1.4790   -5.5350 C.ar   21  TRP21      -0.0030
     26  CD2       -7.2610    2.6790   -5.9050 C.ar   21  TRP21      -0.0059
@<TRIPOS>BOND
     1    22    23   ar
     2    22    21   ar
     3    23    24   ar
     4    21    20    1
     5    21    26   ar
     6    24    25   ar
     7    20    19    1
     8    25    26   ar
     9    26    18    1
    10    19    18    1
    11    18    17    1
    12     3     2    1
    13     2     4    1
    14     2     1    1
    15     5     6    1
    16     7     6   ar
    17    13    15    1
    18    13    14    1
    19    15    16    1
    20     6     8   ar
    21     9    11    1
    22     9    10    1
    23    11    12    1
@<TRIPOS>MOLECULE
178103
 37 41 0 0 0
SMALL
GASTEIGER

@<TRIPOS>ATOM
      1 O          -9.8515    4.7274   -4.1983 O.co2   1  LIG11      -0.5495
      2 O          -8.4385    5.9788   -5.4687 O.co2   1  LIG11      -0.5495
      3 O          -1.8731    4.2718   -2.4979 O.3     1  LIG11      -0.4920
      4 O          -6.5675    2.0000   -2.2132 O.3     1  LIG11      -0.4893
      5 O          -7.8468    1.6430   -9.8439 O.3     1  LIG11      -0.4526
      6 O          -7.6004   -0.5769   -8.9286 O.3     1  LIG11      -0.4526
      7 O          -8.3521    3.1519    2.0658 O.3     1  LIG11      -0.4950
      8 O          -4.4392    0.2549   -2.8972 O.3     1  LIG11      -0.3917
      9 C          -7.6172    4.0125   -4.4152 C.3     1  LIG11       0.0203
     10 C          -6.8563    4.6621   -3.2349 C.3     1  LIG11       0.0218
     11 C          -6.6045    3.8534   -5.5737 C.3     1  LIG11       0.0184
     12 C          -5.4114    4.3357   -3.5515 C.ar    1  LIG11      -0.0320
     13 C          -5.2740    3.8459   -4.8503 C.ar    1  LIG11      -0.0353
     14 C          -7.3060    4.2075   -1.8463 C.ar    1  LIG11       0.0025
     15 C          -6.8643    2.6253   -6.4330 C.ar    1  LIG11      -0.0356
     16 C          -8.7387    4.9944   -4.7360 C.2     1  LIG11       0.0466
     17 C          -4.3044    4.5137   -2.7280 C.ar    1  LIG11      -0.0159
     18 C          -4.0227    3.4987   -5.3394 C.ar    1  LIG11      -0.0542
     19 C          -7.1261    2.8998   -1.3508 C.ar    1  LIG11       0.1278
     20 C          -3.0412    4.1673   -3.2078 C.ar    1  LIG11       0.1208
     21 C          -7.2583    2.7897   -7.7727 C.ar    1  LIG11      -0.0124
     22 C          -2.9102    3.6419   -4.5030 C.ar    1  LIG11      -0.0196
     23 C          -6.7258    1.3155   -5.9150 C.ar    1  LIG11      -0.0543
     24 C          -7.9138    5.1647   -1.0141 C.ar    1  LIG11      -0.0510
     25 C          -7.4787    1.6609   -8.5339 C.ar    1  LIG11       0.1665
     26 C          -6.9622    0.1884   -6.7060 C.ar    1  LIG11      -0.0159
     27 C          -7.4719    2.6127   -0.0247 C.ar    1  LIG11       0.0221
     28 C          -8.2908    4.8553    0.2945 C.ar    1  LIG11      -0.0194
     29 C          -7.3354    0.3951   -8.0133 C.ar    1  LIG11       0.1662
     30 C          -8.0593    3.5800    0.7978 C.ar    1  LIG11       0.1236
     31 C          -1.8507    5.2323   -1.4391 C.3     1  LIG11       0.0893
     32 C          -7.9461    0.2251  -10.0753 C.3     1  LIG11       0.2332
     33 C          -6.6450    0.5994   -1.9520 C.3     1  LIG11       0.1126
     34 C          -2.1202    4.5607   -0.0946 C.3     1  LIG11      -0.0215
     35 C          -5.2279    0.0885   -1.7194 C.3     1  LIG11       0.0783
     36 C          -9.0518    4.0674    2.8986 C.3     1  LIG11       0.0788
     37 C          -2.1945    5.5782    1.0304 C.3     1  LIG11      -0.0622
@<TRIPOS>BOND
     1     1    16   ar
     2     2    16   ar
     3     3    20    1
     4     3    31    1
     5     4    19    1
     6     4    33    1
     7     5    25    1
     8     5    32    1
     9     6    29    1
    10     6    32    1
    11     7    30    1
    12     7    36    1
    13     8    35    1
    14     9    10    1
    15     9    11    1
    16     9    16    1
    17    10    12    1
    18    10    14    1
    19    11    13    1
    20    11    15    1
    21    12    13   ar
    22    12    17   ar
    23    13    18   ar
    24    14    19   ar
    25    14    24   ar
    26    15    21   ar
    27    15    23   ar
    28    17    20   ar
    29    18    22   ar
    30    19    27   ar
    31    20    22   ar
    32    21    25   ar
    33    23    26   ar
    34    24    28   ar
    35    25    29   ar
    36    26    29   ar
    37    27    30   ar
    38    28    30   ar
    39    31    34    1
    40    33    35    1
    41    34    37    1
@<TRIPOS>MOLECULE
../ET1/ET1_17-21_50CONFORMERS.pdb
 47 48 0 0 0
SMALL
GASTEIGER

@<TRIPOS>ATOM
      1  N         -4.8370   -0.0020   -1.9180 N.3    17  LEU17      -0.1231
      2  CA        -6.1040   -0.5080   -2.4970 C.3    17  LEU17       0.1693
      3  CB        -6.2200   -2.0150   -2.2660 C.3    17  LEU17       0.0284
      4  CG        -7.4870   -2.7880   -2.7410 C.3    17  LEU17       0.0019
      5  CD1       -7.7560   -2.6580   -4.2950 C.3    17  LEU17       0.0001
      6  CD2       -7.2700   -4.2410   -2.4020 C.3    17  LEU17       0.0001
      7  C         -7.3010    0.2940   -1.9850 C.2    17  LEU17       0.2592
      8  O         -8.1870    0.7640   -2.7030 O.2    17  LEU17      -0.2718
      9  N         -7.3250    0.4390   -0.6370 N.am   18  ASP18      -0.1960
     10  CA        -8.4150    1.1160    0.1670 C.3    18  ASP18       0.1840
     11  CB        -9.2830    0.1420    0.9540 C.3    18  ASP18       0.1450
     12  CG       -10.4660    0.8060    1.7740 C.2    18  ASP18       0.3671
     13  OD1      -11.2950    1.5080    1.1310 O.co2  18  ASP18      -0.2456
     14  OD2      -10.5110    0.6630    3.0340 O.co2  18  ASP18      -0.2456
     15  C         -7.8360    2.3080    0.9830 C.2    18  ASP18       0.2622
     16  O         -8.4860    3.3440    1.0790 O.2    18  ASP18      -0.2715
     17  N         -6.7010    2.1280    1.6470 N.am   19  ILE19      -0.1963
     18  CA        -6.0990    3.1840    2.4620 C.3    19  ILE19       0.1727
     19  CB        -5.1350    2.6390    3.5580 C.3    19  ILE19       0.0290
     20  CG2       -4.5740    3.8120    4.3410 C.3    19  ILE19       0.0023
     21  CG1       -5.7500    1.6370    4.5180 C.3    19  ILE19       0.0022
     22  CD1       -4.7460    0.7600    5.2450 C.3    19  ILE19       0.0001
     23  C         -5.4410    4.2970    1.6860 C.2    19  ILE19       0.2616
     24  O         -5.5330    5.4920    2.0890 O.2    19  ILE19      -0.2715
     25  N         -4.7740    3.9320    0.5900 N.am   20  ILE20      -0.1963
     26  CA        -4.1940    4.7710   -0.3960 C.3    20  ILE20       0.1727
     27  CB        -2.6220    4.7690   -0.2970 C.3    20  ILE20       0.0290
     28  CG2       -2.2290    5.8150   -1.3590 C.3    20  ILE20       0.0023
     29  CG1       -2.1680    5.1420    1.1400 C.3    20  ILE20       0.0022
     30  CD1       -0.6600    5.3030    1.3390 C.3    20  ILE20       0.0001
     31  C         -4.8240    4.4170   -1.7390 C.2    20  ILE20       0.2617
     32  O         -4.8430    3.2640   -2.1320 O.2    20  ILE20      -0.2715
     33  N         -5.3440    5.3850   -2.5070 N.am   21  TRP21      -0.1941
     34  CA        -5.8430    5.2260   -3.8960 C.3    21  TRP21       0.1982
     35  CB        -7.1750    4.4700   -3.9070 C.3    21  TRP21       0.0394
     36  CG        -7.5360    3.9570   -5.2690 C.3    21  TRP21       0.0475
     37  CD1       -8.1900    4.7020   -6.2020 C.3    21  TRP21       0.1166
     38  NE1       -8.4500    3.9790   -7.3380 N.pl3  21  TRP21      -0.2376
     39  CE2       -7.7020    2.8280   -7.2740 C.ar   21  TRP21       0.0614
     40  CZ2       -7.5760    1.8010   -8.2060 C.ar   21  TRP21       0.0158
     41  CH2       -6.9090    0.6250   -7.7970 C.ar   21  TRP21       0.0013
     42  CZ3       -6.5580    0.4430   -6.4490 C.ar   21  TRP21      -0.0002
     43  CE3       -6.6670    1.4790   -5.5350 C.ar   21  TRP21      -0.0030
     44  CD2       -7.2610    2.6790   -5.9050 C.ar   21  TRP21      -0.0059
     45  C         -5.9490    6.5820   -4.5280 C.2    21  TRP21       0.3842
     46  O         -5.3290    6.8220   -5.5630 O.co2  21  TRP21      -0.2437
     47  OXT       -6.5920    7.4700   -3.9460 O.co2  21  TRP21      -0.2437
@<TRIPOS>BOND
     1    40    41   ar
     2    40    39   ar
     3    41    42   ar
     4    39    38    1
     5    39    44   ar
     6    42    43   ar
     7    38    37    1
     8    43    44   ar
     9    44    36    1
    10    37    36    1
    11    36    35    1
    12    47    45   ar
    13     5     4    1
    14    35    34    1
    15    45    34    1
    16    45    46   ar
    17    34    33    1
    18     8     7    2
    19     4     6    1
    20     4     3    1
    21     2     3    1
    22     2     1    1
    23     2     7    1
    24     7     9   am
    25    33    31   am
    26    32    31    2
    27    31    26    1
    28     9    10    1
    29    10    11    1
    30    10    15    1
    31    26    27    1
    32    26    25    1
    33    11    12    1
    34    13    12   ar
    35    27    29    1
    36    27    28    1
    37    29    30    1
    38    16    15    2
    39    15    17   am
    40    12    14   ar
    41    25    23   am
    42    17    18    1
    43    23    24    2
    44    23    18    1
    45    18    19    1
    46    19    21    1
    47    19    20    1
    48    21    22    1
