@<TRIPOS>MOLECULE
../ET1/ET1_17-21_50CONFORMERS_NOBACKBONE.pdb
 26 23 0 0 0
SMALL
GASTEIGER

@<TRIPOS>ATOM
      1  CB        -6.3700   -1.8050   -0.2060 C.3    17  LEU17       0.0000
      2  CG        -7.6770   -2.6370   -0.2070 C.3    17  LEU17       0.0000
      3  CD1       -7.7720   -3.4980   -1.4100 C.3    17  LEU17       0.0000
      4  CD2       -7.8300   -3.5260    1.0180 C.3    17  LEU17       0.0000
      5  CB        -9.4620    1.8070    0.9100 C.3    18  ASP18       0.1258
      6  CG       -10.5680    2.8630    1.0760 C.2    18  ASP18       0.3654
      7  OD1      -11.5500    2.8380    0.3300 O.co2  18  ASP18      -0.2456
      8  OD2      -10.4140    3.6300    2.0110 O.co2  18  ASP18      -0.2456
      9  CB        -5.3050    4.5110    2.7070 C.3    19  ILE19       0.0000
     10  CG2       -4.4360    5.7350    3.1290 C.3    19  ILE19       0.0000
     11  CG1       -6.0230    3.8420    3.9750 C.3    19  ILE19       0.0000
     12  CD1       -6.9850    4.9020    4.6120 C.3    19  ILE19       0.0000
     13  CB        -2.4570    5.4700   -1.3450 C.3    20  ILE20       0.0000
     14  CG2       -2.1500    6.6250   -0.3180 C.3    20  ILE20       0.0000
     15  CG1       -1.7200    4.1500   -1.0860 C.3    20  ILE20       0.0000
     16  CD1       -0.1680    4.2940   -1.0740 C.3    20  ILE20       0.0000
     17  CB        -5.8830    4.8470   -5.8240 C.3    21  TRP21       0.0066
     18  CG        -6.9950    4.3220   -4.9430 C.3    21  TRP21       0.0452
     19  CD1       -7.3330    4.6770   -3.6820 C.3    21  TRP21       0.1165
     20  NE1       -8.3680    3.9550   -3.1920 N.pl3  21  TRP21      -0.2376
     21  CE2       -8.8970    3.0980   -4.1470 C.ar   21  TRP21       0.0614
     22  CZ2       -9.9180    2.1260   -4.1570 C.ar   21  TRP21       0.0158
     23  CH2      -10.1590    1.3550   -5.3180 C.ar   21  TRP21       0.0013
     24  CZ3       -9.3060    1.6050   -6.3710 C.ar   21  TRP21      -0.0002
     25  CE3       -8.2430    2.5870   -6.3550 C.ar   21  TRP21      -0.0030
     26  CD2       -8.0330    3.3480   -5.2670 C.ar   21  TRP21      -0.0059
@<TRIPOS>BOND
     1    22    23   ar
     2    22    21   ar
     3    23    24   ar
     4    21    20    1
     5    21    26   ar
     6    24    25   ar
     7    20    19    1
     8    25    26   ar
     9    26    18    1
    10    19    18    1
    11    18    17    1
    12     3     2    1
    13     2     4    1
    14     2     1    1
    15     5     6    1
    16     7     6   ar
    17    13    15    1
    18    13    14    1
    19    15    16    1
    20     6     8   ar
    21     9    11    1
    22     9    10    1
    23    11    12    1
@<TRIPOS>MOLECULE
16004692
 32 34 0 0 0
SMALL
GASTEIGER

@<TRIPOS>ATOM
      1 BR         -7.4805    3.4737   -7.8063 Br      1  LIG11      -0.0503
      2 BR         -3.5827    4.1208   -2.9680 Br      1  LIG11      -0.0472
      3 S          -9.8617   -2.4042   -4.5005 S.O2    1  LIG11       0.1104
      4 O         -10.3519    2.5437   -1.6190 O.3     1  LIG11      -0.4724
      5 O          -8.7639   -1.6475   -5.0418 O.2     1  LIG11      -0.1381
      6 O         -10.3756   -3.5760   -5.1644 O.2     1  LIG11      -0.1381
      7 O          -8.1148    1.1503   -0.5639 O.3     1  LIG11      -0.4590
      8 N          -9.4927   -2.8681   -2.9461 N.3     1  LIG11      -0.1771
      9 N         -11.1960   -1.4186   -4.3175 N.pl3   1  LIG11      -0.1889
     10 N         -11.9800   -1.1220   -2.2604 N.ar    1  LIG11      -0.2186
     11 N         -11.5776    0.7445   -0.8833 N.ar    1  LIG11      -0.2008
     12 N          -6.0039    1.1482   -1.4226 N.ar    1  LIG11      -0.2022
     13 N          -7.1108    3.2215   -1.0031 N.ar    1  LIG11      -0.2022
     14 C          -8.4659   -2.1308   -2.2026 C.3     1  LIG11       0.0185
     15 C         -10.6571    0.7404   -3.1635 C.ar    1  LIG11       0.0848
     16 C         -11.2561   -0.5184   -3.2311 C.ar    1  LIG11       0.1532
     17 C          -8.1135   -2.9114   -0.9395 C.3     1  LIG11      -0.0416
     18 C          -9.9151    1.4164   -4.2850 C.ar    1  LIG11      -0.0094
     19 C         -10.8626    1.2982   -1.8923 C.ar    1  LIG11       0.2276
     20 C          -6.9747   -2.2558   -0.1758 C.3     1  LIG11      -0.0641
     21 C          -8.9471    2.4200   -4.0644 C.ar    1  LIG11      -0.0527
     22 C         -10.1380    1.1010   -5.6408 C.ar    1  LIG11      -0.0527
     23 C          -9.9883    2.7851   -0.2551 C.3     1  LIG11       0.1252
     24 C          -8.2413    3.0502   -5.0995 C.ar    1  LIG11      -0.0472
     25 C          -9.4081    1.6920   -6.6870 C.ar    1  LIG11      -0.0472
     26 C         -12.1147   -0.4431   -1.1268 C.ar    1  LIG11       0.1219
     27 C          -8.9785    1.8005    0.3637 C.3     1  LIG11       0.1267
     28 C          -8.4627    2.6677   -6.4104 C.ar    1  LIG11       0.0179
     29 C          -7.0232    1.8822   -0.9530 C.ar    1  LIG11       0.3180
     30 C          -4.9907    1.8339   -1.9923 C.ar    1  LIG11       0.0483
     31 C          -6.0780    3.8544   -1.6023 C.ar    1  LIG11       0.0483
     32 C          -4.9831    3.2027   -2.1222 C.ar    1  LIG11       0.0543
@<TRIPOS>BOND
     1     1    28    1
     2     2    32    1
     3     3     5    2
     4     3     6    2
     5     3     8    1
     6     3     9    1
     7     4    19    1
     8     4    23    1
     9     7    27    1
    10     7    29    1
    11     8    14    1
    12     9    16    1
    13    10    16   ar
    14    10    26   ar
    15    11    19   ar
    16    11    26   ar
    17    12    29   ar
    18    12    30   ar
    19    13    29   ar
    20    13    31   ar
    21    14    17    1
    22    15    16   ar
    23    15    18    1
    24    15    19   ar
    25    17    20    1
    26    18    21   ar
    27    18    22   ar
    28    21    24   ar
    29    22    25   ar
    30    23    27    1
    31    24    28   ar
    32    25    28   ar
    33    30    32   ar
    34    31    32   ar
@<TRIPOS>MOLECULE
../ET1/ET1_17-21_50CONFORMERS.pdb
 47 48 0 0 0
SMALL
GASTEIGER

@<TRIPOS>ATOM
      1  N         -4.9300    0.0250   -1.1410 N.3    17  LEU17      -0.1231
      2  CA        -6.2160   -0.6670   -1.2750 C.3    17  LEU17       0.1693
      3  CB        -6.3700   -1.8050   -0.2060 C.3    17  LEU17       0.0284
      4  CG        -7.6770   -2.6370   -0.2070 C.3    17  LEU17       0.0019
      5  CD1       -7.7720   -3.4980   -1.4100 C.3    17  LEU17       0.0001
      6  CD2       -7.8300   -3.5260    1.0180 C.3    17  LEU17       0.0001
      7  C         -7.4290    0.3110   -1.2070 C.2    17  LEU17       0.2592
      8  O         -8.2410    0.2990   -2.1470 O.2    17  LEU17      -0.2718
      9  N         -7.4630    1.1840   -0.2470 N.am   18  ASP18      -0.1960
     10  CA        -8.4450    2.2110   -0.1340 C.3    18  ASP18       0.1840
     11  CB        -9.4620    1.8070    0.9100 C.3    18  ASP18       0.1450
     12  CG       -10.5680    2.8630    1.0760 C.2    18  ASP18       0.3671
     13  OD1      -11.5500    2.8380    0.3300 O.co2  18  ASP18      -0.2456
     14  OD2      -10.4140    3.6300    2.0110 O.co2  18  ASP18      -0.2456
     15  C         -7.9300    3.6490    0.1720 C.2    18  ASP18       0.2622
     16  O         -8.3060    4.6610   -0.4000 O.2    18  ASP18      -0.2715
     17  N         -6.9560    3.7380    1.0780 N.am   19  ILE19      -0.1963
     18  CA        -6.2590    4.9510    1.5320 C.3    19  ILE19       0.1727
     19  CB        -5.3050    4.5110    2.7070 C.3    19  ILE19       0.0290
     20  CG2       -4.4360    5.7350    3.1290 C.3    19  ILE19       0.0023
     21  CG1       -6.0230    3.8420    3.9750 C.3    19  ILE19       0.0022
     22  CD1       -6.9850    4.9020    4.6120 C.3    19  ILE19       0.0001
     23  C         -5.5040    5.6430    0.3790 C.2    19  ILE19       0.2616
     24  O         -5.6940    6.8250    0.1220 O.2    19  ILE19      -0.2715
     25  N         -4.6970    4.8860   -0.3940 N.am   20  ILE20      -0.1963
     26  CA        -3.9560    5.3600   -1.5730 C.3    20  ILE20       0.1727
     27  CB        -2.4570    5.4700   -1.3450 C.3    20  ILE20       0.0290
     28  CG2       -2.1500    6.6250   -0.3180 C.3    20  ILE20       0.0023
     29  CG1       -1.7200    4.1500   -1.0860 C.3    20  ILE20       0.0022
     30  CD1       -0.1680    4.2940   -1.0740 C.3    20  ILE20       0.0001
     31  C         -4.2210    4.4780   -2.8270 C.2    20  ILE20       0.2617
     32  O         -4.5200    3.2710   -2.7150 O.2    20  ILE20      -0.2715
     33  N         -4.1970    5.0920   -4.0030 N.am   21  TRP21      -0.1941
     34  CA        -4.4600    4.5270   -5.3230 C.3    21  TRP21       0.1982
     35  CB        -5.8830    4.8470   -5.8240 C.3    21  TRP21       0.0394
     36  CG        -6.9950    4.3220   -4.9430 C.3    21  TRP21       0.0475
     37  CD1       -7.3330    4.6770   -3.6820 C.3    21  TRP21       0.1166
     38  NE1       -8.3680    3.9550   -3.1920 N.pl3  21  TRP21      -0.2376
     39  CE2       -8.8970    3.0980   -4.1470 C.ar   21  TRP21       0.0614
     40  CZ2       -9.9180    2.1260   -4.1570 C.ar   21  TRP21       0.0158
     41  CH2      -10.1590    1.3550   -5.3180 C.ar   21  TRP21       0.0013
     42  CZ3       -9.3060    1.6050   -6.3710 C.ar   21  TRP21      -0.0002
     43  CE3       -8.2430    2.5870   -6.3550 C.ar   21  TRP21      -0.0030
     44  CD2       -8.0330    3.3480   -5.2670 C.ar   21  TRP21      -0.0059
     45  C         -3.4540    4.8840   -6.4240 C.2    21  TRP21       0.3842
     46  O         -3.1280    6.1110   -6.4220 O.co2  21  TRP21      -0.2437
     47  OXT       -3.0220    4.0340   -7.2330 O.co2  21  TRP21      -0.2437
@<TRIPOS>BOND
     1    40    41   ar
     2    40    39   ar
     3    41    42   ar
     4    39    38    1
     5    39    44   ar
     6    42    43   ar
     7    38    37    1
     8    43    44   ar
     9    44    36    1
    10    37    36    1
    11    36    35    1
    12    47    45   ar
    13     5     4    1
    14    35    34    1
    15    45    34    1
    16    45    46   ar
    17    34    33    1
    18     8     7    2
    19     4     6    1
    20     4     3    1
    21     2     3    1
    22     2     1    1
    23     2     7    1
    24     7     9   am
    25    33    31   am
    26    32    31    2
    27    31    26    1
    28     9    10    1
    29    10    11    1
    30    10    15    1
    31    26    27    1
    32    26    25    1
    33    11    12    1
    34    13    12   ar
    35    27    29    1
    36    27    28    1
    37    29    30    1
    38    16    15    2
    39    15    17   am
    40    12    14   ar
    41    25    23   am
    42    17    18    1
    43    23    24    2
    44    23    18    1
    45    18    19    1
    46    19    21    1
    47    19    20    1
    48    21    22    1
