@<TRIPOS>MOLECULE
../ET1/ET1_17-21_50CONFORMERS_NOBACKBONE.pdb
 26 23 0 0 0
SMALL
GASTEIGER

@<TRIPOS>ATOM
      1  CB        -5.4380   -1.8950   -2.7790 C.3    17  LEU17       0.0000
      2  CG        -6.7550   -2.6670   -2.9110 C.3    17  LEU17       0.0000
      3  CD1       -7.2850   -2.7210   -4.3400 C.3    17  LEU17       0.0000
      4  CD2       -6.8480   -4.0480   -2.2330 C.3    17  LEU17       0.0000
      5  CB        -9.1740    0.7080   -0.6200 C.3    18  ASP18       0.1258
      6  CG       -10.4840    1.3320   -0.0080 C.2    18  ASP18       0.3654
      7  OD1      -10.9350    2.3810   -0.5440 O.co2  18  ASP18      -0.2456
      8  OD2      -10.9480    0.9000    1.0780 O.co2  18  ASP18      -0.2456
      9  CB        -5.5360    1.9540    2.7760 C.3    19  ILE19       0.0000
     10  CG2       -4.6680    2.8120    3.6680 C.3    19  ILE19       0.0000
     11  CG1       -6.4730    1.0320    3.5590 C.3    19  ILE19       0.0000
     12  CD1       -5.8010   -0.0580    4.4540 C.3    19  ILE19       0.0000
     13  CB        -2.4050    5.2660    0.1860 C.3    20  ILE20       0.0000
     14  CG2       -2.4630    5.8250    1.5680 C.3    20  ILE20       0.0000
     15  CG1       -1.2750    4.2120    0.0230 C.3    20  ILE20       0.0000
     16  CD1        0.1400    4.6590    0.4820 C.3    20  ILE20       0.0000
     17  CB        -4.0340    5.0970   -4.9050 C.3    21  TRP21       0.0066
     18  CG        -4.1420    4.4570   -6.2530 C.3    21  TRP21       0.0452
     19  CD1       -4.4200    5.1350   -7.3950 C.3    21  TRP21       0.1165
     20  NE1       -4.3580    4.3210   -8.4860 N.pl3  21  TRP21      -0.2376
     21  CE2       -4.2540    2.9980   -8.1000 C.ar   21  TRP21       0.0614
     22  CZ2       -4.2590    1.7930   -8.8040 C.ar   21  TRP21       0.0158
     23  CH2       -4.1230    0.5570   -8.1300 C.ar   21  TRP21       0.0013
     24  CZ3       -3.9250    0.5410   -6.7890 C.ar   21  TRP21      -0.0002
     25  CE3       -3.9150    1.7780   -6.0690 C.ar   21  TRP21      -0.0030
     26  CD2       -4.1040    3.0450   -6.6980 C.ar   21  TRP21      -0.0059
@<TRIPOS>BOND
     1    22    23   ar
     2    22    21   ar
     3    23    24   ar
     4    21    20    1
     5    21    26   ar
     6    24    25   ar
     7    20    19    1
     8    25    26   ar
     9    26    18    1
    10    19    18    1
    11    18    17    1
    12     3     2    1
    13     2     4    1
    14     2     1    1
    15     5     6    1
    16     7     6   ar
    17    13    15    1
    18    13    14    1
    19    15    16    1
    20     6     8   ar
    21     9    11    1
    22     9    10    1
    23    11    12    1
@<TRIPOS>MOLECULE
HTS1204-03362316-01
 44 47 0 0 0
SMALL
USER_CHARGES

@<TRIPOS>ATOM
      1 C1         -3.6806    1.2113   -5.8431 C.ar    1  UNK11      -0.0199
      2 N1         -3.0364    3.0950   -6.8559 N.ar    1  UNK11      -0.3494
      3 C2         -5.6923   -1.5093    1.5825 C.2     1  UNK11       0.3028
      4 C3         -3.0024    2.4030   -5.6741 C.ar    1  UNK11       0.0086
      5 C4         -1.6992    0.1184   -3.5072 C.2     1  UNK11       0.2342
      6 C5         -4.1813    1.2186   -7.1907 C.ar    1  UNK11       0.0031
      7 C6         -4.9488   -0.7961   -1.9218 C.2     1  UNK11       0.2340
      8 C7         -3.7608    2.4021   -7.8006 C.ar    1  UNK11       0.0491
      9 N2         -5.0389   -1.2551    0.4160 N.am    1  UNK11      -0.2879
     10 N3         -5.3583   -0.6499    2.6307 N.am    1  UNK11      -0.2856
     11 N4         -3.7583   -0.8770   -2.6096 N.am    1  UNK11      -0.3022
     12 N5         -0.9793    0.3625   -2.3618 N.am    1  UNK11      -0.3054
     13 C8         -3.2512    0.2038   -3.4701 C.3     1  UNK11       0.1034
     14 C9         -5.1821   -1.9293   -0.8863 C.3     1  UNK11       0.1011
     15 C10        -1.4759    0.3448   -0.9665 C.3     1  UNK11       0.0680
     16 C11        -3.8800    0.0797   -4.8682 C.3     1  UNK11       0.0013
     17 C12        -1.8015   -1.0600   -0.3719 C.2     1  UNK11       0.0623
     18 C13        -0.5501    1.1085   -0.0114 C.3     1  UNK11       0.0133
     19 O1         -6.5311   -2.3972    1.7280 O.2     1  UNK11      -0.2526
     20 O2         -5.7350    0.1383   -2.0895 O.2     1  UNK11      -0.2738
     21 O3         -1.0652   -0.0944   -4.5449 O.2     1  UNK11      -0.2738
     22 N6          1.2192   -0.5316   -0.5317 N.ar    1  UNK11      -0.2598
     23 O4         -1.8547   -2.0157   -1.2049 O.co2   1  UNK11      -0.5479
     24 C14        -6.5108   -2.6528   -1.1661 C.3     1  UNK11      -0.0236
     25 C15         0.8253    0.5209    0.2192 C.ar    1  UNK11       0.0434
     26 O5         -2.2349   -1.0475    0.8202 O.co2   1  UNK11      -0.5479
     27 C16        -2.3807    4.3615   -7.0865 C.3     1  UNK11       0.0119
     28 C17        -5.9027   -0.9722    3.9501 C.3     1  UNK11       0.0161
     29 C18        -4.5863    0.5874    2.4762 C.3     1  UNK11       0.0161
     30 C19        -4.0716    2.7053   -9.1375 C.ar    1  UNK11      -0.0376
     31 C20        -4.9477    0.3053   -7.9464 C.ar    1  UNK11      -0.0523
     32 C21        -6.4737   -3.5717   -2.4139 C.3     1  UNK11      -0.0446
     33 C22         2.4202   -1.0853   -0.2625 C.ar    1  UNK11       0.0279
     34 C23         1.6551    1.0877    1.1851 C.ar    1  UNK11      -0.0403
     35 C24        -6.6902   -2.8184   -3.7264 C.3     1  UNK11      -0.0626
     36 C25        -7.5420   -4.6640   -2.2866 C.3     1  UNK11      -0.0626
     37 C26        -5.7827    0.1188    5.0163 C.3     1  UNK11      -0.0371
     38 C27        -5.4701    1.8368    2.4449 C.3     1  UNK11      -0.0371
     39 C28        -5.2661    0.5975   -9.2766 C.ar    1  UNK11      -0.0611
     40 C29        -4.8310    1.7818   -9.8627 C.ar    1  UNK11      -0.0598
     41 C30         3.2957   -0.5923    0.6887 C.ar    1  UNK11      -0.0436
     42 C31         2.9084    0.5271    1.4149 C.ar    1  UNK11      -0.0586
     43 C32        -6.5889    1.3876    4.7289 C.3     1  UNK11      -0.0516
     44 C33        -6.7592    1.7670    3.2605 C.3     1  UNK11      -0.0516
@<TRIPOS>BOND
     1     2     4   ar
     2     3     9   am
     3     1     4   ar
     4     5    13    1
     5     1     6   ar
     6     7    11   am
     7     6     8   ar
     8     9    14    1
     9     3    10   am
    10    11    13    1
    11     5    12   am
    12    13    16    1
    13     7    14    1
    14    12    15    1
    15     1    16    1
    16    15    17    1
    17    15    18    1
    18     3    19    2
    19     7    20    2
    20     5    21    2
    21    22    25   ar
    22    17    23   ar
    23    14    24    1
    24    18    25    1
    25    17    26   ar
    26     2    27    1
    27    10    28    1
    28    10    29    1
    29     8    30   ar
    30     6    31   ar
    31    24    32    1
    32    22    33   ar
    33    25    34   ar
    34    32    35    1
    35    32    36    1
    36    28    37    1
    37    29    38    1
    38    31    39   ar
    39    39    40   ar
    40    41    42   ar
    41    34    42   ar
    42    37    43    1
    43    38    44    1
    44     2     8   ar
    45    30    40   ar
    46    33    41   ar
    47    43    44    1
@<TRIPOS>MOLECULE
../ET1/ET1_17-21_50CONFORMERS.pdb
 47 48 0 0 0
SMALL
GASTEIGER

@<TRIPOS>ATOM
      1  N         -4.2630    0.3380   -2.7220 N.3    17  LEU17      -0.1231
      2  CA        -5.4500   -0.3910   -3.2230 C.3    17  LEU17       0.1693
      3  CB        -5.4380   -1.8950   -2.7790 C.3    17  LEU17       0.0284
      4  CG        -6.7550   -2.6670   -2.9110 C.3    17  LEU17       0.0019
      5  CD1       -7.2850   -2.7210   -4.3400 C.3    17  LEU17       0.0001
      6  CD2       -6.8480   -4.0480   -2.2330 C.3    17  LEU17       0.0001
      7  C         -6.7300    0.4070   -2.8460 C.2    17  LEU17       0.2592
      8  O         -7.5370    0.6600   -3.7240 O.2    17  LEU17      -0.2718
      9  N         -6.9440    0.8630   -1.5980 N.am   18  ASP18      -0.1960
     10  CA        -8.1490    1.7210   -1.2230 C.3    18  ASP18       0.1840
     11  CB        -9.1740    0.7080   -0.6200 C.3    18  ASP18       0.1450
     12  CG       -10.4840    1.3320   -0.0080 C.2    18  ASP18       0.3671
     13  OD1      -10.9350    2.3810   -0.5440 O.co2  18  ASP18      -0.2456
     14  OD2      -10.9480    0.9000    1.0780 O.co2  18  ASP18      -0.2456
     15  C         -7.6430    2.6500   -0.1610 C.2    18  ASP18       0.2622
     16  O         -7.9550    3.8460   -0.1940 O.2    18  ASP18      -0.2715
     17  N         -6.9670    2.1560    0.8670 N.am   19  ILE19      -0.1963
     18  CA        -6.3940    2.9560    1.9650 C.3    19  ILE19       0.1727
     19  CB        -5.5360    1.9540    2.7760 C.3    19  ILE19       0.0290
     20  CG2       -4.6680    2.8120    3.6680 C.3    19  ILE19       0.0023
     21  CG1       -6.4730    1.0320    3.5590 C.3    19  ILE19       0.0022
     22  CD1       -5.8010   -0.0580    4.4540 C.3    19  ILE19       0.0001
     23  C         -5.6790    4.1480    1.3650 C.2    19  ILE19       0.2616
     24  O         -5.9890    5.2780    1.6670 O.2    19  ILE19      -0.2715
     25  N         -4.6480    3.9310    0.5270 N.am   20  ILE20      -0.1963
     26  CA        -3.8710    4.9160   -0.2870 C.3    20  ILE20       0.1727
     27  CB        -2.4050    5.2660    0.1860 C.3    20  ILE20       0.0290
     28  CG2       -2.4630    5.8250    1.5680 C.3    20  ILE20       0.0023
     29  CG1       -1.2750    4.2120    0.0230 C.3    20  ILE20       0.0022
     30  CD1        0.1400    4.6590    0.4820 C.3    20  ILE20       0.0001
     31  C         -3.8480    4.4920   -1.7150 C.2    20  ILE20       0.2617
     32  O         -4.4360    3.4530   -1.9970 O.2    20  ILE20      -0.2715
     33  N         -3.1870    5.2370   -2.6190 N.am   21  TRP21      -0.1941
     34  CA        -2.8600    4.7140   -3.9450 C.3    21  TRP21       0.1982
     35  CB        -4.0340    5.0970   -4.9050 C.3    21  TRP21       0.0394
     36  CG        -4.1420    4.4570   -6.2530 C.3    21  TRP21       0.0475
     37  CD1       -4.4200    5.1350   -7.3950 C.3    21  TRP21       0.1166
     38  NE1       -4.3580    4.3210   -8.4860 N.pl3  21  TRP21      -0.2376
     39  CE2       -4.2540    2.9980   -8.1000 C.ar   21  TRP21       0.0614
     40  CZ2       -4.2590    1.7930   -8.8040 C.ar   21  TRP21       0.0158
     41  CH2       -4.1230    0.5570   -8.1300 C.ar   21  TRP21       0.0013
     42  CZ3       -3.9250    0.5410   -6.7890 C.ar   21  TRP21      -0.0002
     43  CE3       -3.9150    1.7780   -6.0690 C.ar   21  TRP21      -0.0030
     44  CD2       -4.1040    3.0450   -6.6980 C.ar   21  TRP21      -0.0059
     45  C         -1.6020    5.3220   -4.5240 C.2    21  TRP21       0.3842
     46  O         -1.4010    6.4990   -4.2420 O.co2  21  TRP21      -0.2437
     47  OXT       -0.8340    4.7050   -5.2670 O.co2  21  TRP21      -0.2437
@<TRIPOS>BOND
     1    40    41   ar
     2    40    39   ar
     3    41    42   ar
     4    39    38    1
     5    39    44   ar
     6    42    43   ar
     7    38    37    1
     8    43    44   ar
     9    44    36    1
    10    37    36    1
    11    36    35    1
    12    47    45   ar
    13     5     4    1
    14    35    34    1
    15    45    34    1
    16    45    46   ar
    17    34    33    1
    18     8     7    2
    19     4     6    1
    20     4     3    1
    21     2     3    1
    22     2     1    1
    23     2     7    1
    24     7     9   am
    25    33    31   am
    26    32    31    2
    27    31    26    1
    28     9    10    1
    29    10    11    1
    30    10    15    1
    31    26    27    1
    32    26    25    1
    33    11    12    1
    34    13    12   ar
    35    27    29    1
    36    27    28    1
    37    29    30    1
    38    16    15    2
    39    15    17   am
    40    12    14   ar
    41    25    23   am
    42    17    18    1
    43    23    24    2
    44    23    18    1
    45    18    19    1
    46    19    21    1
    47    19    20    1
    48    21    22    1
