@<TRIPOS>MOLECULE
../ET1/ET1_17-21_50CONFORMERS_NOBACKBONE.pdb
 26 23 0 0 0
SMALL
GASTEIGER

@<TRIPOS>ATOM
      1  CB        -5.7740   -2.1850   -1.8010 C.3    17  LEU17       0.0000
      2  CG        -6.9730   -3.0400   -2.3010 C.3    17  LEU17       0.0000
      3  CD1       -7.0380   -3.1120   -3.8320 C.3    17  LEU17       0.0000
      4  CD2       -6.9160   -4.4500   -1.6960 C.3    17  LEU17       0.0000
      5  CB        -8.6890    0.3280    1.2400 C.3    18  ASP18       0.1258
      6  CG        -9.9040    1.0180    1.8870 C.2    18  ASP18       0.3654
      7  OD1      -10.9400    1.1270    1.1180 O.co2  18  ASP18      -0.2456
      8  OD2       -9.7800    1.5670    3.0200 O.co2  18  ASP18      -0.2456
      9  CB        -4.7730    3.3050    3.0570 C.3    19  ILE19       0.0000
     10  CG2       -4.3870    4.6610    3.7150 C.3    19  ILE19       0.0000
     11  CG1       -5.3220    2.3630    4.1240 C.3    19  ILE19       0.0000
     12  CD1       -4.2790    1.8480    5.0560 C.3    19  ILE19       0.0000
     13  CB        -2.5980    5.5530   -0.8540 C.3    20  ILE20       0.0000
     14  CG2       -2.5980    6.4730    0.3870 C.3    20  ILE20       0.0000
     15  CG1       -1.4640    4.4600   -0.7860 C.3    20  ILE20       0.0000
     16  CD1       -0.0160    4.9670   -0.5140 C.3    20  ILE20       0.0000
     17  CB        -5.9260    3.7390   -5.1840 C.3    21  TRP21       0.0066
     18  CG        -5.9010    3.1210   -6.5030 C.3    21  TRP21       0.0452
     19  CD1       -6.0680    3.7010   -7.7080 C.3    21  TRP21       0.1165
     20  NE1       -5.8760    2.7770   -8.6880 N.pl3  21  TRP21      -0.2376
     21  CE2       -5.7640    1.5040   -8.1680 C.ar   21  TRP21       0.0614
     22  CZ2       -5.5460    0.2490   -8.7610 C.ar   21  TRP21       0.0158
     23  CH2       -5.2900   -0.8980   -8.0090 C.ar   21  TRP21       0.0013
     24  CZ3       -5.2420   -0.7750   -6.5670 C.ar   21  TRP21      -0.0002
     25  CE3       -5.5730    0.4840   -5.9960 C.ar   21  TRP21      -0.0030
     26  CD2       -5.8070    1.6510   -6.7420 C.ar   21  TRP21      -0.0059
@<TRIPOS>BOND
     1    22    23   ar
     2    22    21   ar
     3    23    24   ar
     4    21    20    1
     5    21    26   ar
     6    24    25   ar
     7    20    19    1
     8    25    26   ar
     9    26    18    1
    10    19    18    1
    11    18    17    1
    12     3     2    1
    13     2     4    1
    14     2     1    1
    15     5     6    1
    16     7     6   ar
    17    13    15    1
    18    13    14    1
    19    15    16    1
    20     6     8   ar
    21     9    11    1
    22     9    10    1
    23    11    12    1
@<TRIPOS>MOLECULE
01479498K
 34 38 0 0 0
SMALL
GASTEIGER

@<TRIPOS>ATOM
      1 C          -5.5350    3.1417   -7.0209 C.3     1  LIG11       0.1526
      2 C          -6.3100    3.8220   -5.9329 C.2     1  LIG11       0.0278
      3 C          -5.4476    1.6179   -6.9144 C.ar    1  LIG11       0.0009
      4 O          -4.1786    3.6305   -7.1835 O.3     1  LIG11      -0.4789
      5 C          -5.7379    4.4876   -4.9130 C.2     1  LIG11       0.0016
      6 C          -7.8189    3.7197   -6.1296 C.2     1  LIG11       0.0721
      7 C          -5.2728    0.9710   -5.6762 C.ar    1  LIG11      -0.0091
      8 C          -5.4738    0.8377   -8.0975 C.ar    1  LIG11      -0.0511
      9 C          -3.5573    4.0332   -6.0333 C.ar    1  LIG11       0.1298
     10 C          -4.2571    4.4467   -4.8968 C.ar    1  LIG11       0.0283
     11 C          -6.5569    5.1681   -3.8889 C.ar    1  LIG11      -0.0165
     12 O          -8.4117    2.9271   -5.3468 O.co2   1  LIG11      -0.5448
     13 O          -8.2668    4.3936   -7.1003 O.co2   1  LIG11      -0.5448
     14 C          -5.1424   -0.4010   -5.6631 C.ar    1  LIG11       0.1666
     15 C          -5.3420   -0.5547   -8.0541 C.ar    1  LIG11      -0.0158
     16 C          -2.1623    4.0376   -6.0524 C.ar    1  LIG11      -0.0158
     17 C          -3.5275    4.8208   -3.7569 C.ar    1  LIG11      -0.0087
     18 C          -6.8234    6.5353   -3.9969 C.ar    1  LIG11      -0.0505
     19 C          -7.0066    4.4696   -2.7639 C.ar    1  LIG11      -0.0505
     20 C          -5.1769   -1.1432   -6.8198 C.ar    1  LIG11       0.1662
     21 O          -4.9586   -1.1716   -4.5569 O.3     1  LIG11      -0.4526
     22 C          -1.4513    4.4054   -4.9105 C.ar    1  LIG11      -0.0164
     23 C          -2.1323    4.7670   -3.7494 C.ar    1  LIG11       0.1217
     24 C          -7.4980    7.2003   -2.9699 C.ar    1  LIG11      -0.0194
     25 C          -7.6763    5.1382   -1.7341 C.ar    1  LIG11      -0.0194
     26 O          -5.0248   -2.4757   -6.5874 O.3     1  LIG11      -0.4526
     27 C          -4.9299   -2.4836   -5.1483 C.3     1  LIG11       0.2332
     28 O          -1.3485    5.0932   -2.6754 O.3     1  LIG11      -0.4893
     29 C          -7.9048    6.5123   -1.8237 C.ar    1  LIG11       0.1201
     30 C          -1.8686    4.7434   -1.3841 C.3     1  LIG11       0.0946
     31 O          -8.5175    7.2855   -0.8736 O.3     1  LIG11      -0.4951
     32 C          -2.3313    6.0081   -0.6684 C.3     1  LIG11      -0.0281
     33 C          -0.7296    4.0856   -0.6085 C.3     1  LIG11      -0.0281
     34 C          -8.7055    6.6810    0.3992 C.3     1  LIG11       0.0788
@<TRIPOS>BOND
     1     1     4    1
     2     1     2    1
     3     1     3    1
     4     2     5    2
     5     2     6    1
     6     3     8   ar
     7     3     7   ar
     8     4     9    1
     9     5    10    1
    10     5    11    1
    11     6    13   ar
    12     6    12   ar
    13     7    14   ar
    14     8    15   ar
    15     9    16   ar
    16     9    10   ar
    17    10    17   ar
    18    11    18   ar
    19    11    19   ar
    20    14    21    1
    21    14    20   ar
    22    15    20   ar
    23    16    22   ar
    24    17    23   ar
    25    18    24   ar
    26    19    25   ar
    27    20    26    1
    28    21    27    1
    29    22    23   ar
    30    23    28    1
    31    24    29   ar
    32    25    29   ar
    33    26    27    1
    34    28    30    1
    35    29    31    1
    36    30    33    1
    37    30    32    1
    38    31    34    1
@<TRIPOS>MOLECULE
../ET1/ET1_17-21_50CONFORMERS.pdb
 47 48 0 0 0
SMALL
GASTEIGER

@<TRIPOS>ATOM
      1  N         -4.3650   -0.0780   -2.0530 N.3    17  LEU17      -0.1231
      2  CA        -5.6590   -0.7500   -2.3480 C.3    17  LEU17       0.1693
      3  CB        -5.7740   -2.1850   -1.8010 C.3    17  LEU17       0.0284
      4  CG        -6.9730   -3.0400   -2.3010 C.3    17  LEU17       0.0019
      5  CD1       -7.0380   -3.1120   -3.8320 C.3    17  LEU17       0.0001
      6  CD2       -6.9160   -4.4500   -1.6960 C.3    17  LEU17       0.0001
      7  C         -6.7880    0.1920   -1.8560 C.2    17  LEU17       0.2592
      8  O         -7.4750    0.7830   -2.6010 O.2    17  LEU17      -0.2718
      9  N         -6.9990    0.3220   -0.5550 N.am   18  ASP18      -0.1960
     10  CA        -8.0310    1.0970    0.1460 C.3    18  ASP18       0.1840
     11  CB        -8.6890    0.3280    1.2400 C.3    18  ASP18       0.1450
     12  CG        -9.9040    1.0180    1.8870 C.2    18  ASP18       0.3671
     13  OD1      -10.9400    1.1270    1.1180 O.co2  18  ASP18      -0.2456
     14  OD2       -9.7800    1.5670    3.0200 O.co2  18  ASP18      -0.2456
     15  C         -7.4780    2.4380    0.6840 C.2    18  ASP18       0.2622
     16  O         -8.1400    3.4460    0.4410 O.2    18  ASP18      -0.2715
     17  N         -6.3660    2.4120    1.3190 N.am   19  ILE19      -0.1963
     18  CA        -5.8470    3.6340    1.9890 C.3    19  ILE19       0.1727
     19  CB        -4.7730    3.3050    3.0570 C.3    19  ILE19       0.0290
     20  CG2       -4.3870    4.6610    3.7150 C.3    19  ILE19       0.0023
     21  CG1       -5.3220    2.3630    4.1240 C.3    19  ILE19       0.0022
     22  CD1       -4.2790    1.8480    5.0560 C.3    19  ILE19       0.0001
     23  C         -5.3040    4.6460    0.9710 C.2    19  ILE19       0.2616
     24  O         -5.6260    5.8410    0.9770 O.2    19  ILE19      -0.2715
     25  N         -4.5100    4.1660   -0.0070 N.am   20  ILE20      -0.1963
     26  CA        -4.0240    4.9420   -1.1520 C.3    20  ILE20       0.1727
     27  CB        -2.5980    5.5530   -0.8540 C.3    20  ILE20       0.0290
     28  CG2       -2.5980    6.4730    0.3870 C.3    20  ILE20       0.0023
     29  CG1       -1.4640    4.4600   -0.7860 C.3    20  ILE20       0.0022
     30  CD1       -0.0160    4.9670   -0.5140 C.3    20  ILE20       0.0001
     31  C         -4.0810    4.2920   -2.5160 C.2    20  ILE20       0.2617
     32  O         -3.6080    3.1740   -2.7100 O.2    20  ILE20      -0.2715
     33  N         -4.6440    4.9650   -3.4850 N.am   21  TRP21      -0.1941
     34  CA        -4.6590    4.6180   -4.9280 C.3    21  TRP21       0.1982
     35  CB        -5.9260    3.7390   -5.1840 C.3    21  TRP21       0.0394
     36  CG        -5.9010    3.1210   -6.5030 C.3    21  TRP21       0.0475
     37  CD1       -6.0680    3.7010   -7.7080 C.3    21  TRP21       0.1166
     38  NE1       -5.8760    2.7770   -8.6880 N.pl3  21  TRP21      -0.2376
     39  CE2       -5.7640    1.5040   -8.1680 C.ar   21  TRP21       0.0614
     40  CZ2       -5.5460    0.2490   -8.7610 C.ar   21  TRP21       0.0158
     41  CH2       -5.2900   -0.8980   -8.0090 C.ar   21  TRP21       0.0013
     42  CZ3       -5.2420   -0.7750   -6.5670 C.ar   21  TRP21      -0.0002
     43  CE3       -5.5730    0.4840   -5.9960 C.ar   21  TRP21      -0.0030
     44  CD2       -5.8070    1.6510   -6.7420 C.ar   21  TRP21      -0.0059
     45  C         -4.5600    5.8130   -5.7870 C.2    21  TRP21       0.3842
     46  O         -5.1980    6.8360   -5.4540 O.co2  21  TRP21      -0.2437
     47  OXT       -3.7970    5.7850   -6.7770 O.co2  21  TRP21      -0.2437
@<TRIPOS>BOND
     1    40    41   ar
     2    40    39   ar
     3    41    42   ar
     4    39    38    1
     5    39    44   ar
     6    42    43   ar
     7    38    37    1
     8    43    44   ar
     9    44    36    1
    10    37    36    1
    11    36    35    1
    12    47    45   ar
    13     5     4    1
    14    35    34    1
    15    45    34    1
    16    45    46   ar
    17    34    33    1
    18     8     7    2
    19     4     6    1
    20     4     3    1
    21     2     3    1
    22     2     1    1
    23     2     7    1
    24     7     9   am
    25    33    31   am
    26    32    31    2
    27    31    26    1
    28     9    10    1
    29    10    11    1
    30    10    15    1
    31    26    27    1
    32    26    25    1
    33    11    12    1
    34    13    12   ar
    35    27    29    1
    36    27    28    1
    37    29    30    1
    38    16    15    2
    39    15    17   am
    40    12    14   ar
    41    25    23   am
    42    17    18    1
    43    23    24    2
    44    23    18    1
    45    18    19    1
    46    19    21    1
    47    19    20    1
    48    21    22    1
