@<TRIPOS>MOLECULE
../ET1/ET1_17-21_50CONFORMERS_NOBACKBONE.pdb
 26 23 0 0 0
SMALL
GASTEIGER

@<TRIPOS>ATOM
      1  CB        -5.6540   -1.9730   -1.0330 C.3    17  LEU17       0.0000
      2  CG        -6.8860   -2.8850   -0.9650 C.3    17  LEU17       0.0000
      3  CD1       -6.9550   -3.8500   -2.1550 C.3    17  LEU17       0.0000
      4  CD2       -6.9280   -3.7170    0.2730 C.3    17  LEU17       0.0000
      5  CB        -9.1320    0.6990    0.2330 C.3    18  ASP18       0.1258
      6  CG       -10.2450    1.5340    0.9100 C.2    18  ASP18       0.3654
      7  OD1      -10.0780    1.9510    2.0560 O.co2  18  ASP18      -0.2456
      8  OD2      -11.2910    1.7150    0.2230 O.co2  18  ASP18      -0.2456
      9  CB        -5.7270    3.7760    3.1080 C.3    19  ILE19       0.0000
     10  CG2       -4.9660    4.9240    3.7730 C.3    19  ILE19       0.0000
     11  CG1       -6.6700    3.0380    4.0790 C.3    19  ILE19       0.0000
     12  CD1       -5.9480    2.4560    5.2780 C.3    19  ILE19       0.0000
     13  CB        -2.5590    5.4580   -0.6350 C.3    20  ILE20       0.0000
     14  CG2       -2.3730    6.4550    0.5350 C.3    20  ILE20       0.0000
     15  CG1       -1.7080    4.1930   -0.7000 C.3    20  ILE20       0.0000
     16  CD1       -0.1540    4.5080   -0.7350 C.3    20  ILE20       0.0000
     17  CB        -6.4690    4.8360   -5.1330 C.3    21  TRP21       0.0066
     18  CG        -6.7110    4.2340   -6.4470 C.3    21  TRP21       0.0452
     19  CD1       -7.2580    4.8790   -7.5230 C.3    21  TRP21       0.1165
     20  NE1       -7.4920    3.9990   -8.5900 N.pl3  21  TRP21      -0.2376
     21  CE2       -7.0850    2.7260   -8.1970 C.ar   21  TRP21       0.0614
     22  CZ2       -7.2620    1.4930   -8.7590 C.ar   21  TRP21       0.0158
     23  CH2       -7.0900    0.3620   -7.9570 C.ar   21  TRP21       0.0013
     24  CZ3       -6.6660    0.3940   -6.6190 C.ar   21  TRP21      -0.0002
     25  CE3       -6.4060    1.6770   -6.0820 C.ar   21  TRP21      -0.0030
     26  CD2       -6.6250    2.8570   -6.8110 C.ar   21  TRP21      -0.0059
@<TRIPOS>BOND
     1    22    23   ar
     2    22    21   ar
     3    23    24   ar
     4    21    20    1
     5    21    26   ar
     6    24    25   ar
     7    20    19    1
     8    25    26   ar
     9    26    18    1
    10    19    18    1
    11    18    17    1
    12     3     2    1
    13     2     4    1
    14     2     1    1
    15     5     6    1
    16     7     6   ar
    17    13    15    1
    18    13    14    1
    19    15    16    1
    20     6     8   ar
    21     9    11    1
    22     9    10    1
    23    11    12    1
@<TRIPOS>MOLECULE
46174111
 29 32 0 0 0
SMALL
GASTEIGER

@<TRIPOS>ATOM
      1 CL         -3.9386    0.6438    2.2902 Cl      1  LIG11      -0.0762
      2 S          -2.8028    0.9550   -1.2171 S.O2    1  LIG11       0.0758
      3 S          -2.1552    2.6602   -5.1136 S.2     1  LIG11      -0.0918
      4 O          -6.8650   -1.3558   -7.3518 O.3     1  LIG11      -0.4526
      5 O          -8.1625   -0.1362   -8.9775 O.3     1  LIG11      -0.4526
      6 O          -5.2571    1.2107   -3.3072 O.2     1  LIG11      -0.2911
      7 O          -2.1915   -0.3551   -1.2940 O.2     1  LIG11      -0.1499
      8 O          -2.3133    1.9592   -0.2959 O.2     1  LIG11      -0.1499
      9 O          -6.0471    2.4775   -0.4113 O.2     1  LIG11      -0.3364
     10 N          -4.4520    0.7308   -1.0109 N.pl3   1  LIG11      -0.1821
     11 N          -6.4922    3.1496    0.7125 N.ar    1  LIG11      -0.0798
     12 C          -6.0577    2.0422   -6.1563 C.ar    1  LIG11      -0.0333
     13 C          -5.3046    2.8020   -5.0726 C.3     1  LIG11       0.0366
     14 C          -6.8272    2.7578   -7.1242 C.ar    1  LIG11      -0.0432
     15 C          -2.3523    1.6543   -2.7605 C.ar    1  LIG11       0.1261
     16 C          -3.1407    2.0512   -3.8354 C.ar    1  LIG11       0.0814
     17 C          -6.0354    0.6330   -6.2151 C.ar    1  LIG11      -0.0123
     18 C          -4.5845    1.9608   -4.0214 C.2     1  LIG11       0.1759
     19 C          -6.7718   -0.0088   -7.1890 C.ar    1  LIG11       0.1665
     20 C          -7.5094    0.6831   -8.1119 C.ar    1  LIG11       0.1665
     21 C          -7.5482    2.0581   -8.1139 C.ar    1  LIG11      -0.0130
     22 C          -6.8808    4.2637   -7.1825 C.3     1  LIG11      -0.0393
     23 C          -0.9528    1.8968   -3.0044 C.ar    1  LIG11      -0.0273
     24 C          -7.7764   -1.4296   -8.4674 C.3     1  LIG11       0.2332
     25 C          -0.7149    2.4459   -4.2391 C.ar    1  LIG11      -0.0217
     26 C          -5.0725    1.5910   -0.0652 C.ar    1  LIG11       0.2554
     27 C          -4.9115    1.6211    1.3014 C.ar    1  LIG11       0.1262
     28 C          -5.8178    2.6164    1.7411 C.ar    1  LIG11       0.1009
     29 C          -6.1109    3.0601    3.1230 C.3     1  LIG11      -0.0176
@<TRIPOS>BOND
     1     1    27    1
     2     2    10    1
     3     2    15    1
     4     2     8    2
     5     2     7    2
     6     3    16   ar
     7     3    25   ar
     8     4    24    1
     9     4    19    1
    10     5    20    1
    11     5    24    1
    12     6    18    2
    13     9    11   ar
    14     9    26   ar
    15    10    26    1
    16    11    28   ar
    17    12    17   ar
    18    12    14   ar
    19    13    18    1
    20    13    12    1
    21    14    21   ar
    22    14    22    1
    23    15    23   ar
    24    15    16   ar
    25    16    18    1
    26    17    19   ar
    27    19    20   ar
    28    20    21   ar
    29    23    25   ar
    30    26    27   ar
    31    27    28   ar
    32    28    29    1
@<TRIPOS>MOLECULE
../ET1/ET1_17-21_50CONFORMERS.pdb
 47 48 0 0 0
SMALL
GASTEIGER

@<TRIPOS>ATOM
      1  N         -4.3950   -0.1070   -1.8460 N.3    17  LEU17      -0.1231
      2  CA        -5.6300   -0.8860   -2.0720 C.3    17  LEU17       0.1693
      3  CB        -5.6540   -1.9730   -1.0330 C.3    17  LEU17       0.0284
      4  CG        -6.8860   -2.8850   -0.9650 C.3    17  LEU17       0.0019
      5  CD1       -6.9550   -3.8500   -2.1550 C.3    17  LEU17       0.0001
      6  CD2       -6.9280   -3.7170    0.2730 C.3    17  LEU17       0.0001
      7  C         -6.7880    0.1640   -2.0230 C.2    17  LEU17       0.2592
      8  O         -7.5520    0.3120   -2.9720 O.2    17  LEU17      -0.2718
      9  N         -6.9460    0.8160   -0.8370 N.am   18  ASP18      -0.1960
     10  CA        -8.1680    1.5850   -0.5860 C.3    18  ASP18       0.1840
     11  CB        -9.1320    0.6990    0.2330 C.3    18  ASP18       0.1450
     12  CG       -10.2450    1.5340    0.9100 C.2    18  ASP18       0.3671
     13  OD1      -10.0780    1.9510    2.0560 O.co2  18  ASP18      -0.2456
     14  OD2      -11.2910    1.7150    0.2230 O.co2  18  ASP18      -0.2456
     15  C         -7.8700    2.9380    0.1710 C.2    18  ASP18       0.2622
     16  O         -8.3820    3.9960   -0.1640 O.2    18  ASP18      -0.2715
     17  N         -7.0200    2.9490    1.2190 N.am   19  ILE19      -0.1963
     18  CA        -6.5440    4.2230    1.8820 C.3    19  ILE19       0.1727
     19  CB        -5.7270    3.7760    3.1080 C.3    19  ILE19       0.0290
     20  CG2       -4.9660    4.9240    3.7730 C.3    19  ILE19       0.0023
     21  CG1       -6.6700    3.0380    4.0790 C.3    19  ILE19       0.0022
     22  CD1       -5.9480    2.4560    5.2780 C.3    19  ILE19       0.0001
     23  C         -5.7610    5.1170    0.9190 C.2    19  ILE19       0.2616
     24  O         -6.0590    6.3210    0.7540 O.2    19  ILE19      -0.2715
     25  N         -4.8130    4.4940    0.1790 N.am   20  ILE20      -0.1963
     26  CA        -4.0840    5.2030   -0.9320 C.3    20  ILE20       0.1727
     27  CB        -2.5590    5.4580   -0.6350 C.3    20  ILE20       0.0290
     28  CG2       -2.3730    6.4550    0.5350 C.3    20  ILE20       0.0023
     29  CG1       -1.7080    4.1930   -0.7000 C.3    20  ILE20       0.0022
     30  CD1       -0.1540    4.5080   -0.7350 C.3    20  ILE20       0.0001
     31  C         -4.4220    4.5550   -2.2960 C.2    20  ILE20       0.2617
     32  O         -4.1670    3.3870   -2.4630 O.2    20  ILE20      -0.2715
     33  N         -4.8430    5.3260   -3.2730 N.am   21  TRP21      -0.1941
     34  CA        -4.9870    5.0200   -4.6800 C.3    21  TRP21       0.1982
     35  CB        -6.4690    4.8360   -5.1330 C.3    21  TRP21       0.0394
     36  CG        -6.7110    4.2340   -6.4470 C.3    21  TRP21       0.0475
     37  CD1       -7.2580    4.8790   -7.5230 C.3    21  TRP21       0.1166
     38  NE1       -7.4920    3.9990   -8.5900 N.pl3  21  TRP21      -0.2376
     39  CE2       -7.0850    2.7260   -8.1970 C.ar   21  TRP21       0.0614
     40  CZ2       -7.2620    1.4930   -8.7590 C.ar   21  TRP21       0.0158
     41  CH2       -7.0900    0.3620   -7.9570 C.ar   21  TRP21       0.0013
     42  CZ3       -6.6660    0.3940   -6.6190 C.ar   21  TRP21      -0.0002
     43  CE3       -6.4060    1.6770   -6.0820 C.ar   21  TRP21      -0.0030
     44  CD2       -6.6250    2.8570   -6.8110 C.ar   21  TRP21      -0.0059
     45  C         -4.3080    5.9580   -5.5320 C.2    21  TRP21       0.3842
     46  O         -4.3710    7.1530   -5.3290 O.co2  21  TRP21      -0.2437
     47  OXT       -3.5940    5.5140   -6.4740 O.co2  21  TRP21      -0.2437
@<TRIPOS>BOND
     1    40    41   ar
     2    40    39   ar
     3    41    42   ar
     4    39    38    1
     5    39    44   ar
     6    42    43   ar
     7    38    37    1
     8    43    44   ar
     9    44    36    1
    10    37    36    1
    11    36    35    1
    12    47    45   ar
    13     5     4    1
    14    35    34    1
    15    45    34    1
    16    45    46   ar
    17    34    33    1
    18     8     7    2
    19     4     6    1
    20     4     3    1
    21     2     3    1
    22     2     1    1
    23     2     7    1
    24     7     9   am
    25    33    31   am
    26    32    31    2
    27    31    26    1
    28     9    10    1
    29    10    11    1
    30    10    15    1
    31    26    27    1
    32    26    25    1
    33    11    12    1
    34    13    12   ar
    35    27    29    1
    36    27    28    1
    37    29    30    1
    38    16    15    2
    39    15    17   am
    40    12    14   ar
    41    25    23   am
    42    17    18    1
    43    23    24    2
    44    23    18    1
    45    18    19    1
    46    19    21    1
    47    19    20    1
    48    21    22    1
