@<TRIPOS>MOLECULE
../ET1/ET1_17-21_50CONFORMERS_NOBACKBONE.pdb
 26 23 0 0 0
SMALL
GASTEIGER

@<TRIPOS>ATOM
      1  CB        -5.4380   -1.8950   -2.7790 C.3    17  LEU17       0.0000
      2  CG        -6.7550   -2.6670   -2.9110 C.3    17  LEU17       0.0000
      3  CD1       -7.2850   -2.7210   -4.3400 C.3    17  LEU17       0.0000
      4  CD2       -6.8480   -4.0480   -2.2330 C.3    17  LEU17       0.0000
      5  CB        -9.1740    0.7080   -0.6200 C.3    18  ASP18       0.1258
      6  CG       -10.4840    1.3320   -0.0080 C.2    18  ASP18       0.3654
      7  OD1      -10.9350    2.3810   -0.5440 O.co2  18  ASP18      -0.2456
      8  OD2      -10.9480    0.9000    1.0780 O.co2  18  ASP18      -0.2456
      9  CB        -5.5360    1.9540    2.7760 C.3    19  ILE19       0.0000
     10  CG2       -4.6680    2.8120    3.6680 C.3    19  ILE19       0.0000
     11  CG1       -6.4730    1.0320    3.5590 C.3    19  ILE19       0.0000
     12  CD1       -5.8010   -0.0580    4.4540 C.3    19  ILE19       0.0000
     13  CB        -2.4050    5.2660    0.1860 C.3    20  ILE20       0.0000
     14  CG2       -2.4630    5.8250    1.5680 C.3    20  ILE20       0.0000
     15  CG1       -1.2750    4.2120    0.0230 C.3    20  ILE20       0.0000
     16  CD1        0.1400    4.6590    0.4820 C.3    20  ILE20       0.0000
     17  CB        -4.0340    5.0970   -4.9050 C.3    21  TRP21       0.0066
     18  CG        -4.1420    4.4570   -6.2530 C.3    21  TRP21       0.0452
     19  CD1       -4.4200    5.1350   -7.3950 C.3    21  TRP21       0.1165
     20  NE1       -4.3580    4.3210   -8.4860 N.pl3  21  TRP21      -0.2376
     21  CE2       -4.2540    2.9980   -8.1000 C.ar   21  TRP21       0.0614
     22  CZ2       -4.2590    1.7930   -8.8040 C.ar   21  TRP21       0.0158
     23  CH2       -4.1230    0.5570   -8.1300 C.ar   21  TRP21       0.0013
     24  CZ3       -3.9250    0.5410   -6.7890 C.ar   21  TRP21      -0.0002
     25  CE3       -3.9150    1.7780   -6.0690 C.ar   21  TRP21      -0.0030
     26  CD2       -4.1040    3.0450   -6.6980 C.ar   21  TRP21      -0.0059
@<TRIPOS>BOND
     1    22    23   ar
     2    22    21   ar
     3    23    24   ar
     4    21    20    1
     5    21    26   ar
     6    24    25   ar
     7    20    19    1
     8    25    26   ar
     9    26    18    1
    10    19    18    1
    11    18    17    1
    12     3     2    1
    13     2     4    1
    14     2     1    1
    15     5     6    1
    16     7     6   ar
    17    13    15    1
    18    13    14    1
    19    15    16    1
    20     6     8   ar
    21     9    11    1
    22     9    10    1
    23    11    12    1
@<TRIPOS>MOLECULE
9957262
 35 38 0 0 0
SMALL
GASTEIGER

@<TRIPOS>ATOM
      1 S          -4.2860    6.6414   -4.7263 S.O2    1  LIG11       0.0668
      2 O          -0.9130    5.7993   -4.5439 O.3     1  LIG11      -0.4435
      3 O           1.0923    6.7060   -2.6963 O.3     1  LIG11      -0.4771
      4 O          -5.4606    7.3931   -5.1235 O.2     1  LIG11      -0.1505
      5 O          -4.1768    6.1316   -3.3773 O.2     1  LIG11      -0.1505
      6 O          -1.6990    4.8385   -2.0007 O.3     1  LIG11      -0.4914
      7 N          -3.0019    7.6905   -5.0535 N.pl3   1  LIG11      -0.1968
      8 N          -2.2589    8.9561   -3.3382 N.ar    1  LIG11      -0.2044
      9 N          -0.2698    8.5153   -2.1216 N.ar    1  LIG11      -0.1867
     10 N          -2.9685   10.8358   -1.4137 N.ar    1  LIG11      -0.2331
     11 N          -0.6926   10.8921   -0.6901 N.ar    1  LIG11      -0.2331
     12 C          -2.0398    7.8228   -4.0170 C.ar    1  LIG11       0.1883
     13 C          -1.0041    6.9392   -3.7934 C.ar    1  LIG11       0.2307
     14 C          -0.0936    7.3973   -2.8558 C.ar    1  LIG11       0.2639
     15 C          -0.3809    4.6602   -3.9671 C.ar    1  LIG11       0.1702
     16 C          -4.1018    5.3684   -5.8901 C.2     1  LIG11       0.0729
     17 C          -1.3858    9.2361   -2.3520 C.ar    1  LIG11       0.2027
     18 C          -0.7275    4.1701   -2.6949 C.ar    1  LIG11       0.1621
     19 C          -4.1239    4.0857   -5.5003 C.2     1  LIG11      -0.0353
     20 C          -4.0774    2.9160   -6.3965 C.ar    1  LIG11      -0.0237
     21 C           0.5443    3.9681   -4.7563 C.ar    1  LIG11      -0.0157
     22 C          -1.6908   10.3845   -1.4529 C.ar    1  LIG11       0.1978
     23 C          -0.1044    3.0111   -2.2174 C.ar    1  LIG11      -0.0163
     24 C           1.1634    2.8179   -4.2679 C.ar    1  LIG11      -0.0581
     25 C           0.8449    2.3452   -2.9969 C.ar    1  LIG11      -0.0581
     26 C          -4.0466    3.0061   -7.7957 C.ar    1  LIG11      -0.0546
     27 C          -4.0978    1.6387   -5.8164 C.ar    1  LIG11      -0.0546
     28 C          -4.0359    1.8540   -8.5893 C.ar    1  LIG11      -0.0612
     29 C          -4.0890    0.4870   -6.6088 C.ar    1  LIG11      -0.0612
     30 C          -4.0580    0.5953   -7.9958 C.ar    1  LIG11      -0.0617
     31 C           1.9444    7.2411   -1.6894 C.3     1  LIG11       0.0805
     32 C          -1.6222    4.7694   -0.5817 C.3     1  LIG11       0.0790
     33 C          -3.2382   11.8301   -0.5503 C.ar    1  LIG11       0.0315
     34 C          -1.0209   11.8954    0.1448 C.ar    1  LIG11       0.0315
     35 C          -2.2918   12.4045    0.2616 C.ar    1  LIG11      -0.0254
@<TRIPOS>BOND
     1     1     4    2
     2     1     5    2
     3     1     7    1
     4     1    16    1
     5     2    13    1
     6     2    15    1
     7     3    14    1
     8     3    31    1
     9     6    18    1
    10     6    32    1
    11     7    12    1
    12     8    12   ar
    13     8    17   ar
    14     9    14   ar
    15     9    17   ar
    16    10    22   ar
    17    10    33   ar
    18    11    22   ar
    19    11    34   ar
    20    12    13   ar
    21    13    14   ar
    22    15    18   ar
    23    15    21   ar
    24    16    19    2
    25    17    22    1
    26    18    23   ar
    27    19    20    1
    28    20    26   ar
    29    20    27   ar
    30    21    24   ar
    31    23    25   ar
    32    24    25   ar
    33    26    28   ar
    34    27    29   ar
    35    28    30   ar
    36    29    30   ar
    37    33    35   ar
    38    34    35   ar
@<TRIPOS>MOLECULE
../ET1/ET1_17-21_50CONFORMERS.pdb
 47 48 0 0 0
SMALL
GASTEIGER

@<TRIPOS>ATOM
      1  N         -4.2630    0.3380   -2.7220 N.3    17  LEU17      -0.1231
      2  CA        -5.4500   -0.3910   -3.2230 C.3    17  LEU17       0.1693
      3  CB        -5.4380   -1.8950   -2.7790 C.3    17  LEU17       0.0284
      4  CG        -6.7550   -2.6670   -2.9110 C.3    17  LEU17       0.0019
      5  CD1       -7.2850   -2.7210   -4.3400 C.3    17  LEU17       0.0001
      6  CD2       -6.8480   -4.0480   -2.2330 C.3    17  LEU17       0.0001
      7  C         -6.7300    0.4070   -2.8460 C.2    17  LEU17       0.2592
      8  O         -7.5370    0.6600   -3.7240 O.2    17  LEU17      -0.2718
      9  N         -6.9440    0.8630   -1.5980 N.am   18  ASP18      -0.1960
     10  CA        -8.1490    1.7210   -1.2230 C.3    18  ASP18       0.1840
     11  CB        -9.1740    0.7080   -0.6200 C.3    18  ASP18       0.1450
     12  CG       -10.4840    1.3320   -0.0080 C.2    18  ASP18       0.3671
     13  OD1      -10.9350    2.3810   -0.5440 O.co2  18  ASP18      -0.2456
     14  OD2      -10.9480    0.9000    1.0780 O.co2  18  ASP18      -0.2456
     15  C         -7.6430    2.6500   -0.1610 C.2    18  ASP18       0.2622
     16  O         -7.9550    3.8460   -0.1940 O.2    18  ASP18      -0.2715
     17  N         -6.9670    2.1560    0.8670 N.am   19  ILE19      -0.1963
     18  CA        -6.3940    2.9560    1.9650 C.3    19  ILE19       0.1727
     19  CB        -5.5360    1.9540    2.7760 C.3    19  ILE19       0.0290
     20  CG2       -4.6680    2.8120    3.6680 C.3    19  ILE19       0.0023
     21  CG1       -6.4730    1.0320    3.5590 C.3    19  ILE19       0.0022
     22  CD1       -5.8010   -0.0580    4.4540 C.3    19  ILE19       0.0001
     23  C         -5.6790    4.1480    1.3650 C.2    19  ILE19       0.2616
     24  O         -5.9890    5.2780    1.6670 O.2    19  ILE19      -0.2715
     25  N         -4.6480    3.9310    0.5270 N.am   20  ILE20      -0.1963
     26  CA        -3.8710    4.9160   -0.2870 C.3    20  ILE20       0.1727
     27  CB        -2.4050    5.2660    0.1860 C.3    20  ILE20       0.0290
     28  CG2       -2.4630    5.8250    1.5680 C.3    20  ILE20       0.0023
     29  CG1       -1.2750    4.2120    0.0230 C.3    20  ILE20       0.0022
     30  CD1        0.1400    4.6590    0.4820 C.3    20  ILE20       0.0001
     31  C         -3.8480    4.4920   -1.7150 C.2    20  ILE20       0.2617
     32  O         -4.4360    3.4530   -1.9970 O.2    20  ILE20      -0.2715
     33  N         -3.1870    5.2370   -2.6190 N.am   21  TRP21      -0.1941
     34  CA        -2.8600    4.7140   -3.9450 C.3    21  TRP21       0.1982
     35  CB        -4.0340    5.0970   -4.9050 C.3    21  TRP21       0.0394
     36  CG        -4.1420    4.4570   -6.2530 C.3    21  TRP21       0.0475
     37  CD1       -4.4200    5.1350   -7.3950 C.3    21  TRP21       0.1166
     38  NE1       -4.3580    4.3210   -8.4860 N.pl3  21  TRP21      -0.2376
     39  CE2       -4.2540    2.9980   -8.1000 C.ar   21  TRP21       0.0614
     40  CZ2       -4.2590    1.7930   -8.8040 C.ar   21  TRP21       0.0158
     41  CH2       -4.1230    0.5570   -8.1300 C.ar   21  TRP21       0.0013
     42  CZ3       -3.9250    0.5410   -6.7890 C.ar   21  TRP21      -0.0002
     43  CE3       -3.9150    1.7780   -6.0690 C.ar   21  TRP21      -0.0030
     44  CD2       -4.1040    3.0450   -6.6980 C.ar   21  TRP21      -0.0059
     45  C         -1.6020    5.3220   -4.5240 C.2    21  TRP21       0.3842
     46  O         -1.4010    6.4990   -4.2420 O.co2  21  TRP21      -0.2437
     47  OXT       -0.8340    4.7050   -5.2670 O.co2  21  TRP21      -0.2437
@<TRIPOS>BOND
     1    40    41   ar
     2    40    39   ar
     3    41    42   ar
     4    39    38    1
     5    39    44   ar
     6    42    43   ar
     7    38    37    1
     8    43    44   ar
     9    44    36    1
    10    37    36    1
    11    36    35    1
    12    47    45   ar
    13     5     4    1
    14    35    34    1
    15    45    34    1
    16    45    46   ar
    17    34    33    1
    18     8     7    2
    19     4     6    1
    20     4     3    1
    21     2     3    1
    22     2     1    1
    23     2     7    1
    24     7     9   am
    25    33    31   am
    26    32    31    2
    27    31    26    1
    28     9    10    1
    29    10    11    1
    30    10    15    1
    31    26    27    1
    32    26    25    1
    33    11    12    1
    34    13    12   ar
    35    27    29    1
    36    27    28    1
    37    29    30    1
    38    16    15    2
    39    15    17   am
    40    12    14   ar
    41    25    23   am
    42    17    18    1
    43    23    24    2
    44    23    18    1
    45    18    19    1
    46    19    21    1
    47    19    20    1
    48    21    22    1
