@<TRIPOS>MOLECULE
../ET1/ET1_17-21_50CONFORMERS_NOBACKBONE.pdb
 26 23 0 0 0
SMALL
GASTEIGER

@<TRIPOS>ATOM
      1  CB        -6.1680   -1.6030   -0.8030 C.3    17  LEU17       0.0000
      2  CG        -7.3010   -2.6660   -0.9890 C.3    17  LEU17       0.0000
      3  CD1       -6.9130   -3.7970   -1.9630 C.3    17  LEU17       0.0000
      4  CD2       -7.4830   -3.2850    0.3370 C.3    17  LEU17       0.0000
      5  CB        -9.3270    1.4400   -1.0160 C.3    18  ASP18       0.1258
      6  CG       -10.6300    2.2090   -1.2500 C.2    18  ASP18       0.3654
      7  OD1      -11.0860    2.2920   -2.4490 O.co2  18  ASP18      -0.2456
      8  OD2      -11.2320    2.7130   -0.3400 O.co2  18  ASP18      -0.2456
      9  CB        -7.2480    4.9270    1.5370 C.3    19  ILE19       0.0000
     10  CG2       -6.8910    6.2680    2.1860 C.3    19  ILE19       0.0000
     11  CG1       -8.6480    4.4460    2.0860 C.3    19  ILE19       0.0000
     12  CD1       -8.7390    4.2860    3.5900 C.3    19  ILE19       0.0000
     13  CB        -2.4540    4.3920    0.1650 C.3    20  ILE20       0.0000
     14  CG2       -0.9250    4.3550   -0.2960 C.3    20  ILE20       0.0000
     15  CG1       -2.3670    5.0710    1.5310 C.3    20  ILE20       0.0000
     16  CD1       -3.4310    4.7860    2.5760 C.3    20  ILE20       0.0000
     17  CB        -4.3330    5.4990   -4.9470 C.3    21  TRP21       0.0066
     18  CG        -4.7390    4.8290   -6.1730 C.3    21  TRP21       0.0452
     19  CD1       -4.3830    5.3150   -7.3710 C.3    21  TRP21       0.1165
     20  NE1       -4.8840    4.4920   -8.3410 N.pl3  21  TRP21      -0.2376
     21  CE2       -5.5200    3.3960   -7.8350 C.ar   21  TRP21       0.0614
     22  CZ2       -6.2050    2.3030   -8.4580 C.ar   21  TRP21       0.0158
     23  CH2       -6.8150    1.3270   -7.6190 C.ar   21  TRP21       0.0013
     24  CZ3       -6.9630    1.6000   -6.2310 C.ar   21  TRP21      -0.0002
     25  CE3       -6.3060    2.7150   -5.5920 C.ar   21  TRP21      -0.0030
     26  CD2       -5.5210    3.6010   -6.4020 C.ar   21  TRP21      -0.0059
@<TRIPOS>BOND
     1    22    23   ar
     2    22    21   ar
     3    23    24   ar
     4    21    20    1
     5    21    26   ar
     6    24    25   ar
     7    20    19    1
     8    25    26   ar
     9    26    18    1
    10    19    18    1
    11    18    17    1
    12     3     2    1
    13     2     4    1
    14     2     1    1
    15     5     6    1
    16     7     6   ar
    17    13    15    1
    18    13    14    1
    19    15    16    1
    20     6     8   ar
    21     9    11    1
    22     9    10    1
    23    11    12    1
@<TRIPOS>MOLECULE
02228316B
 42 46 0 0 0
SMALL
GASTEIGER

@<TRIPOS>ATOM
      1 C          -6.9567    4.4576    2.0359 C.3     1  LIG11       0.2491
      2 C          -6.8674    3.2920    1.0717 C.2     1  LIG11       0.3556
      3 N          -5.5528    4.6680    2.4670 N.2     1  LIG11      -0.0687
      4 C          -7.8339    4.1419    3.2541 C.3     1  LIG11       0.0059
      5 C          -7.5219    5.7260    1.3952 C.3     1  LIG11       0.0059
      6 N          -5.5324    3.0153    0.9403 N.am    1  LIG11      -0.1529
      7 O          -7.8072    2.6931    0.5714 O.2     1  LIG11      -0.2422
      8 C          -4.8590    3.7861    1.8120 C.2     1  LIG11       0.2916
      9 C          -9.0362    5.0691    3.1221 C.3     1  LIG11      -0.0481
     10 C          -8.4606    6.3029    2.4490 C.3     1  LIG11      -0.0481
     11 C          -5.0809    1.8587    0.1844 C.3     1  LIG11       0.1137
     12 C          -3.3779    3.6436    2.0875 C.3     1  LIG11       0.0509
     13 C          -5.3398    1.9545   -1.3013 C.ar    1  LIG11      -0.0073
     14 C          -2.5690    4.8841    1.7051 C.3     1  LIG11      -0.0424
     15 C          -4.8733    3.0200   -2.0739 C.ar    1  LIG11      -0.0491
     16 C          -6.0358    0.9489   -1.9536 C.ar    1  LIG11      -0.0544
     17 C          -2.4099    5.1185    0.2029 C.3     1  LIG11      -0.0554
     18 C          -5.0459    3.0849   -3.4836 C.ar    1  LIG11      -0.0138
     19 C          -6.2430    1.0196   -3.3335 C.ar    1  LIG11      -0.0533
     20 C          -1.6509    4.0108   -0.5135 C.3     1  LIG11      -0.0653
     21 C          -5.7340    2.0398   -4.1542 C.ar    1  LIG11      -0.0106
     22 C          -4.5484    4.3640   -4.1379 C.3     1  LIG11       0.0732
     23 C          -6.0113    2.0110   -5.6249 C.ar    1  LIG11       0.0091
     24 O          -3.7863    4.1301   -5.3144 O.3     1  LIG11      -0.3754
     25 C          -5.7439    0.9503   -6.5319 C.ar    1  LIG11       0.1162
     26 C          -6.6400    3.1474   -6.1888 C.ar    1  LIG11      -0.0521
     27 C          -3.2353    5.3294   -5.8610 C.3     1  LIG11       0.0453
     28 S          -5.1920   -0.6965   -6.0691 S.O2    1  LIG11       0.0741
     29 C          -5.9611    1.1115   -7.9213 C.ar    1  LIG11      -0.0345
     30 C          -6.8778    3.2874   -7.5609 C.ar    1  LIG11      -0.0611
     31 C          -4.2706    6.1485   -6.6147 C.3     1  LIG11      -0.0416
     32 N          -6.6174   -1.4797   -5.5803 N.pl3   1  LIG11      -0.1965
     33 O          -4.3602   -0.6069   -4.8887 O.2     1  LIG11      -0.1499
     34 O          -4.6873   -1.3675   -7.2471 O.2     1  LIG11      -0.1499
     35 C          -6.5156    2.2766   -8.4331 C.ar    1  LIG11      -0.0599
     36 C          -7.8276   -1.2405   -6.2273 C.ar    1  LIG11       0.1837
     37 C          -9.0417   -0.8189   -5.6115 C.ar    1  LIG11       0.0342
     38 N          -7.9813   -1.3914   -7.5438 N.ar    1  LIG11      -0.0614
     39 C          -9.9144   -0.6920   -6.6723 C.ar    1  LIG11       0.1390
     40 C          -9.3351   -0.4902   -4.1983 C.3     1  LIG11      -0.0330
     41 O          -9.2885   -1.0516   -7.8207 O.2     1  LIG11      -0.3578
     42 C         -11.3174   -0.2506   -6.7946 C.3     1  LIG11      -0.0034
@<TRIPOS>BOND
     1     1     5    1
     2     1     4    1
     3     1     2    1
     4     1     3    1
     5     2     6   am
     6     2     7    2
     7     3     8    2
     8     4     9    1
     9     5    10    1
    10     6     8    1
    11     6    11    1
    12     8    12    1
    13     9    10    1
    14    11    13    1
    15    12    14    1
    16    13    15   ar
    17    13    16   ar
    18    14    17    1
    19    15    18   ar
    20    16    19   ar
    21    17    20    1
    22    18    21   ar
    23    18    22    1
    24    19    21   ar
    25    21    23    1
    26    22    24    1
    27    23    26   ar
    28    23    25   ar
    29    24    27    1
    30    25    29   ar
    31    25    28    1
    32    26    30   ar
    33    27    31    1
    34    28    34    2
    35    28    33    2
    36    28    32    1
    37    29    35   ar
    38    30    35   ar
    39    32    36    1
    40    36    37   ar
    41    36    38   ar
    42    37    39   ar
    43    37    40    1
    44    38    41   ar
    45    39    41   ar
    46    39    42    1
@<TRIPOS>MOLECULE
../ET1/ET1_17-21_50CONFORMERS.pdb
 47 48 0 0 0
SMALL
GASTEIGER

@<TRIPOS>ATOM
      1  N         -4.4070   -0.1580   -1.6100 N.3    17  LEU17      -0.1231
      2  CA        -5.6240   -0.8400   -1.9910 C.3    17  LEU17       0.1693
      3  CB        -6.1680   -1.6030   -0.8030 C.3    17  LEU17       0.0284
      4  CG        -7.3010   -2.6660   -0.9890 C.3    17  LEU17       0.0019
      5  CD1       -6.9130   -3.7970   -1.9630 C.3    17  LEU17       0.0001
      6  CD2       -7.4830   -3.2850    0.3370 C.3    17  LEU17       0.0001
      7  C         -6.6870    0.1230   -2.5080 C.2    17  LEU17       0.2592
      8  O         -7.3680   -0.2170   -3.4720 O.2    17  LEU17      -0.2718
      9  N         -7.0550    1.1550   -1.7250 N.am   18  ASP18      -0.1960
     10  CA        -8.2140    1.9780   -1.9970 C.3    18  ASP18       0.1840
     11  CB        -9.3270    1.4400   -1.0160 C.3    18  ASP18       0.1450
     12  CG       -10.6300    2.2090   -1.2500 C.2    18  ASP18       0.3671
     13  OD1      -11.0860    2.2920   -2.4490 O.co2  18  ASP18      -0.2456
     14  OD2      -11.2320    2.7130   -0.3400 O.co2  18  ASP18      -0.2456
     15  C         -7.8840    3.4890   -1.7310 C.2    18  ASP18       0.2622
     16  O         -8.1040    4.2530   -2.6550 O.2    18  ASP18      -0.2715
     17  N         -7.4380    3.8400   -0.5470 N.am   19  ILE19      -0.1963
     18  CA        -7.1780    5.1420    0.0290 C.3    19  ILE19       0.1727
     19  CB        -7.2480    4.9270    1.5370 C.3    19  ILE19       0.0290
     20  CG2       -6.8910    6.2680    2.1860 C.3    19  ILE19       0.0023
     21  CG1       -8.6480    4.4460    2.0860 C.3    19  ILE19       0.0022
     22  CD1       -8.7390    4.2860    3.5900 C.3    19  ILE19       0.0001
     23  C         -5.7780    5.6630   -0.5380 C.2    19  ILE19       0.2616
     24  O         -5.6970    6.7570   -1.0600 O.2    19  ILE19      -0.2715
     25  N         -4.7690    4.8050   -0.3150 N.am   20  ILE20      -0.1963
     26  CA        -3.4620    5.0020   -0.8160 C.3    20  ILE20       0.1727
     27  CB        -2.4540    4.3920    0.1650 C.3    20  ILE20       0.0290
     28  CG2       -0.9250    4.3550   -0.2960 C.3    20  ILE20       0.0023
     29  CG1       -2.3670    5.0710    1.5310 C.3    20  ILE20       0.0022
     30  CD1       -3.4310    4.7860    2.5760 C.3    20  ILE20       0.0001
     31  C         -3.2210    4.4080   -2.1730 C.2    20  ILE20       0.2617
     32  O         -3.6730    3.2860   -2.4590 O.2    20  ILE20      -0.2715
     33  N         -2.7570    5.2530   -3.1090 N.am   21  TRP21      -0.1941
     34  CA        -2.8960    5.1440   -4.5550 C.3    21  TRP21       0.1982
     35  CB        -4.3330    5.4990   -4.9470 C.3    21  TRP21       0.0394
     36  CG        -4.7390    4.8290   -6.1730 C.3    21  TRP21       0.0475
     37  CD1       -4.3830    5.3150   -7.3710 C.3    21  TRP21       0.1166
     38  NE1       -4.8840    4.4920   -8.3410 N.pl3  21  TRP21      -0.2376
     39  CE2       -5.5200    3.3960   -7.8350 C.ar   21  TRP21       0.0614
     40  CZ2       -6.2050    2.3030   -8.4580 C.ar   21  TRP21       0.0158
     41  CH2       -6.8150    1.3270   -7.6190 C.ar   21  TRP21       0.0013
     42  CZ3       -6.9630    1.6000   -6.2310 C.ar   21  TRP21      -0.0002
     43  CE3       -6.3060    2.7150   -5.5920 C.ar   21  TRP21      -0.0030
     44  CD2       -5.5210    3.6010   -6.4020 C.ar   21  TRP21      -0.0059
     45  C         -1.8100    6.0150   -5.1580 C.2    21  TRP21       0.3842
     46  O         -1.3610    5.7820   -6.2550 O.co2  21  TRP21      -0.2437
     47  OXT       -1.2950    6.9770   -4.4370 O.co2  21  TRP21      -0.2437
@<TRIPOS>BOND
     1    40    41   ar
     2    40    39   ar
     3    41    42   ar
     4    39    38    1
     5    39    44   ar
     6    42    43   ar
     7    38    37    1
     8    43    44   ar
     9    44    36    1
    10    37    36    1
    11    36    35    1
    12    47    45   ar
    13     5     4    1
    14    35    34    1
    15    45    34    1
    16    45    46   ar
    17    34    33    1
    18     8     7    2
    19     4     6    1
    20     4     3    1
    21     2     3    1
    22     2     1    1
    23     2     7    1
    24     7     9   am
    25    33    31   am
    26    32    31    2
    27    31    26    1
    28     9    10    1
    29    10    11    1
    30    10    15    1
    31    26    27    1
    32    26    25    1
    33    11    12    1
    34    13    12   ar
    35    27    29    1
    36    27    28    1
    37    29    30    1
    38    16    15    2
    39    15    17   am
    40    12    14   ar
    41    25    23   am
    42    17    18    1
    43    23    24    2
    44    23    18    1
    45    18    19    1
    46    19    21    1
    47    19    20    1
    48    21    22    1
