@<TRIPOS>MOLECULE
../ET1/ET1_17-21_50CONFORMERS_NOBACKBONE.pdb
 26 23 0 0 0
SMALL
GASTEIGER

@<TRIPOS>ATOM
      1  CB        -6.1310   -1.8090   -0.5270 C.3    17  LEU17       0.0000
      2  CG        -7.4070   -2.7000   -0.5300 C.3    17  LEU17       0.0000
      3  CD1       -7.7160   -3.1950   -1.9390 C.3    17  LEU17       0.0000
      4  CD2       -7.2270   -3.7850    0.5500 C.3    17  LEU17       0.0000
      5  CB        -9.5320    1.0750    0.8580 C.3    18  ASP18       0.1258
      6  CG       -10.7800    2.0020    0.9270 C.2    18  ASP18       0.3654
      7  OD1      -11.6450    1.9960    0.0150 O.co2  18  ASP18      -0.2456
      8  OD2      -10.9480    2.6740    1.9790 O.co2  18  ASP18      -0.2456
      9  CB        -5.5200    4.0560    3.1630 C.3    19  ILE19       0.0000
     10  CG2       -4.6340    5.2440    3.6770 C.3    19  ILE19       0.0000
     11  CG1       -6.3440    3.4570    4.3090 C.3    19  ILE19       0.0000
     12  CD1       -5.5140    2.5520    5.2940 C.3    19  ILE19       0.0000
     13  CB        -2.7570    4.7950   -1.0380 C.3    20  ILE20       0.0000
     14  CG2       -2.0870    5.2180   -2.4190 C.3    20  ILE20       0.0000
     15  CG1       -2.0630    5.5960    0.0600 C.3    20  ILE20       0.0000
     16  CD1       -0.5780    5.4070   -0.0470 C.3    20  ILE20       0.0000
     17  CB        -7.6200    3.7070   -3.9320 C.3    21  TRP21       0.0066
     18  CG        -8.3010    2.9550   -4.9610 C.3    21  TRP21       0.0452
     19  CD1       -9.5490    3.2390   -5.4270 C.3    21  TRP21       0.1165
     20  NE1       -9.9110    2.3770   -6.4370 N.pl3  21  TRP21      -0.2376
     21  CE2       -8.8950    1.4430   -6.6670 C.ar   21  TRP21       0.0614
     22  CZ2       -8.6550    0.3710   -7.5990 C.ar   21  TRP21       0.0158
     23  CH2       -7.4400   -0.3430   -7.5640 C.ar   21  TRP21       0.0013
     24  CZ3       -6.5670   -0.0430   -6.5570 C.ar   21  TRP21      -0.0002
     25  CE3       -6.7650    0.9330   -5.6460 C.ar   21  TRP21      -0.0030
     26  CD2       -7.9320    1.7440   -5.7080 C.ar   21  TRP21      -0.0059
@<TRIPOS>BOND
     1    22    23   ar
     2    22    21   ar
     3    23    24   ar
     4    21    20    1
     5    21    26   ar
     6    24    25   ar
     7    20    19    1
     8    25    26   ar
     9    26    18    1
    10    19    18    1
    11    18    17    1
    12     3     2    1
    13     2     4    1
    14     2     1    1
    15     5     6    1
    16     7     6   ar
    17    13    15    1
    18    13    14    1
    19    15    16    1
    20     6     8   ar
    21     9    11    1
    22     9    10    1
    23    11    12    1
@<TRIPOS>MOLECULE
01012527H
 38 40 0 0 0
SMALL
GASTEIGER

@<TRIPOS>ATOM
      1 C          -9.3543    1.3270   -3.5944 C.3     1  LIG11       0.0531
      2 C          -8.5218    1.0387   -2.3507 C.3     1  LIG11      -0.0111
      3 C          -8.5220    2.1667   -4.5542 C.3     1  LIG11       0.0375
      4 C         -10.4699    2.1365   -2.9424 C.2     1  LIG11       0.0509
      5 N          -7.2983    1.9735   -2.4759 N.3     1  LIG11       0.2448
      6 C          -7.9666   -0.3985   -2.2167 C.3     1  LIG11      -0.0039
      7 C          -7.9128    1.3286   -5.6762 C.ar    1  LIG11      -0.0313
      8 C          -7.5399    2.9055   -3.6536 C.3     1  LIG11      -0.0234
      9 O         -10.1821    3.3375   -2.6867 O.co2   1  LIG11      -0.5493
     10 O         -11.4855    1.4649   -2.6309 O.co2   1  LIG11      -0.5493
     11 C          -7.0071    2.7392   -1.1881 C.3     1  LIG11       0.0465
     12 C          -8.9254   -1.5170   -1.6942 C.3     1  LIG11      -0.0298
     13 C          -8.6794    1.1543   -6.8447 C.ar    1  LIG11      -0.0122
     14 C          -6.6308    0.7272   -5.6100 C.ar    1  LIG11      -0.0124
     15 C          -5.6575    3.4685   -1.2646 C.2     1  LIG11       0.2608
     16 C          -8.0866   -2.7849   -1.3220 C.3     1  LIG11      -0.0479
     17 C          -9.9128   -1.9486   -2.7984 C.3     1  LIG11      -0.0596
     18 C          -9.7412   -1.0528   -0.4744 C.3     1  LIG11      -0.0596
     19 C          -8.1466    0.4251   -7.8867 C.ar    1  LIG11       0.1702
     20 C          -6.1121   -0.0191   -6.6802 C.ar    1  LIG11       0.1656
     21 N          -5.2962    4.3199   -0.2295 N.am    1  LIG11      -0.2971
     22 O          -4.9308    3.2777   -2.2471 O.2     1  LIG11      -0.2697
     23 C          -7.1995   -2.6667   -0.0742 C.3     1  LIG11      -0.0554
     24 C          -6.9015   -0.1486   -7.8085 C.ar    1  LIG11       0.2075
     25 O          -8.7542    0.1988   -9.0822 O.3     1  LIG11      -0.4525
     26 O          -4.8964   -0.6391   -6.7110 O.3     1  LIG11      -0.4913
     27 C          -6.0147    4.4370    1.0490 C.3     1  LIG11       0.0148
     28 C          -4.1184    5.1746   -0.4260 C.3     1  LIG11       0.0148
     29 C          -6.4385   -3.9590    0.1879 C.3     1  LIG11      -0.0653
     30 O          -6.5738   -0.8144   -8.9526 O.3     1  LIG11      -0.4489
     31 C          -7.7379   -0.5646   -9.7621 C.3     1  LIG11       0.2334
     32 C          -3.9799   -0.3327   -5.6706 C.3     1  LIG11       0.0790
     33 C          -5.1588    3.9935    2.2388 C.3     1  LIG11      -0.0374
     34 C          -2.7921    4.4227   -0.2776 C.3     1  LIG11      -0.0374
     35 C          -5.9530    3.9914    3.5437 C.3     1  LIG11      -0.0545
     36 C          -1.5736    5.3485   -0.3032 C.3     1  LIG11      -0.0545
     37 C          -5.0640    3.6461    4.7290 C.3     1  LIG11      -0.0652
     38 C          -1.4176    6.1130   -1.6089 C.3     1  LIG11      -0.0652
@<TRIPOS>BOND
     1     1     2    1
     2     1     3    1
     3     1     4    1
     4     2     5    1
     5     2     6    1
     6     3     8    1
     7     3     7    1
     8     4    10   ar
     9     4     9   ar
    10     5     8    1
    11     5    11    1
    12     6    12    1
    13     7    14   ar
    14     7    13   ar
    15    11    15    1
    16    12    18    1
    17    12    17    1
    18    12    16    1
    19    13    19   ar
    20    14    20   ar
    21    15    22    2
    22    15    21   am
    23    16    23    1
    24    19    25    1
    25    19    24   ar
    26    20    24   ar
    27    20    26    1
    28    21    28    1
    29    21    27    1
    30    23    29    1
    31    24    30    1
    32    25    31    1
    33    26    32    1
    34    27    33    1
    35    28    34    1
    36    30    31    1
    37    33    35    1
    38    34    36    1
    39    35    37    1
    40    36    38    1
@<TRIPOS>MOLECULE
../ET1/ET1_17-21_50CONFORMERS.pdb
 47 48 0 0 0
SMALL
GASTEIGER

@<TRIPOS>ATOM
      1  N         -4.7730    0.0050   -1.4620 N.3    17  LEU17      -0.1231
      2  CA        -6.0920   -0.6930   -1.5710 C.3    17  LEU17       0.1693
      3  CB        -6.1310   -1.8090   -0.5270 C.3    17  LEU17       0.0284
      4  CG        -7.4070   -2.7000   -0.5300 C.3    17  LEU17       0.0019
      5  CD1       -7.7160   -3.1950   -1.9390 C.3    17  LEU17       0.0001
      6  CD2       -7.2270   -3.7850    0.5500 C.3    17  LEU17       0.0001
      7  C         -7.2220    0.3070   -1.6030 C.2    17  LEU17       0.2592
      8  O         -8.0160    0.3050   -2.5560 O.2    17  LEU17      -0.2718
      9  N         -7.4110    0.9590   -0.4240 N.am   18  ASP18      -0.1960
     10  CA        -8.5230    1.8150   -0.0260 C.3    18  ASP18       0.1840
     11  CB        -9.5320    1.0750    0.8580 C.3    18  ASP18       0.1450
     12  CG       -10.7800    2.0020    0.9270 C.2    18  ASP18       0.3671
     13  OD1      -11.6450    1.9960    0.0150 O.co2  18  ASP18      -0.2456
     14  OD2      -10.9480    2.6740    1.9790 O.co2  18  ASP18      -0.2456
     15  C         -8.1630    3.1480    0.5720 C.2    18  ASP18       0.2622
     16  O         -8.4870    4.2060    0.0570 O.2    18  ASP18      -0.2715
     17  N         -7.1580    3.1700    1.4870 N.am   19  ILE19      -0.1963
     18  CA        -6.5010    4.4100    2.0140 C.3    19  ILE19       0.1727
     19  CB        -5.5200    4.0560    3.1630 C.3    19  ILE19       0.0290
     20  CG2       -4.6340    5.2440    3.6770 C.3    19  ILE19       0.0023
     21  CG1       -6.3440    3.4570    4.3090 C.3    19  ILE19       0.0022
     22  CD1       -5.5140    2.5520    5.2940 C.3    19  ILE19       0.0001
     23  C         -5.8540    5.2020    0.9170 C.2    19  ILE19       0.2616
     24  O         -6.0890    6.3900    0.7170 O.2    19  ILE19      -0.2715
     25  N         -4.9340    4.5760    0.1200 N.am   20  ILE20      -0.1963
     26  CA        -4.3050    5.0560   -1.1210 C.3    20  ILE20       0.1727
     27  CB        -2.7570    4.7950   -1.0380 C.3    20  ILE20       0.0290
     28  CG2       -2.0870    5.2180   -2.4190 C.3    20  ILE20       0.0023
     29  CG1       -2.0630    5.5960    0.0600 C.3    20  ILE20       0.0022
     30  CD1       -0.5780    5.4070   -0.0470 C.3    20  ILE20       0.0001
     31  C         -5.0000    4.2460   -2.2800 C.2    20  ILE20       0.2617
     32  O         -4.8970    3.0140   -2.3930 O.2    20  ILE20      -0.2715
     33  N         -5.6430    4.9710   -3.2380 N.am   21  TRP21      -0.1941
     34  CA        -6.2760    4.3970   -4.3640 C.3    21  TRP21       0.1982
     35  CB        -7.6200    3.7070   -3.9320 C.3    21  TRP21       0.0394
     36  CG        -8.3010    2.9550   -4.9610 C.3    21  TRP21       0.0475
     37  CD1       -9.5490    3.2390   -5.4270 C.3    21  TRP21       0.1166
     38  NE1       -9.9110    2.3770   -6.4370 N.pl3  21  TRP21      -0.2376
     39  CE2       -8.8950    1.4430   -6.6670 C.ar   21  TRP21       0.0614
     40  CZ2       -8.6550    0.3710   -7.5990 C.ar   21  TRP21       0.0158
     41  CH2       -7.4400   -0.3430   -7.5640 C.ar   21  TRP21       0.0013
     42  CZ3       -6.5670   -0.0430   -6.5570 C.ar   21  TRP21      -0.0002
     43  CE3       -6.7650    0.9330   -5.6460 C.ar   21  TRP21      -0.0030
     44  CD2       -7.9320    1.7440   -5.7080 C.ar   21  TRP21      -0.0059
     45  C         -6.6270    5.5290   -5.4110 C.2    21  TRP21       0.3842
     46  O         -6.5990    5.2250   -6.6440 O.co2  21  TRP21      -0.2437
     47  OXT       -7.0570    6.6710   -5.0490 O.co2  21  TRP21      -0.2437
@<TRIPOS>BOND
     1    40    41   ar
     2    40    39   ar
     3    41    42   ar
     4    39    38    1
     5    39    44   ar
     6    42    43   ar
     7    38    37    1
     8    43    44   ar
     9    44    36    1
    10    37    36    1
    11    36    35    1
    12    47    45   ar
    13     5     4    1
    14    35    34    1
    15    45    34    1
    16    45    46   ar
    17    34    33    1
    18     8     7    2
    19     4     6    1
    20     4     3    1
    21     2     3    1
    22     2     1    1
    23     2     7    1
    24     7     9   am
    25    33    31   am
    26    32    31    2
    27    31    26    1
    28     9    10    1
    29    10    11    1
    30    10    15    1
    31    26    27    1
    32    26    25    1
    33    11    12    1
    34    13    12   ar
    35    27    29    1
    36    27    28    1
    37    29    30    1
    38    16    15    2
    39    15    17   am
    40    12    14   ar
    41    25    23   am
    42    17    18    1
    43    23    24    2
    44    23    18    1
    45    18    19    1
    46    19    21    1
    47    19    20    1
    48    21    22    1
