@<TRIPOS>MOLECULE
../ET1/ET1_17-21_50CONFORMERS_NOBACKBONE.pdb
 26 23 0 0 0
SMALL
GASTEIGER

@<TRIPOS>ATOM
      1  CB        -6.5650   -1.4580   -0.3110 C.3    17  LEU17       0.0000
      2  CG        -7.7460   -2.4340   -0.5060 C.3    17  LEU17       0.0000
      3  CD1       -7.8580   -3.0370   -1.9450 C.3    17  LEU17       0.0000
      4  CD2       -7.5480   -3.6660    0.4700 C.3    17  LEU17       0.0000
      5  CB        -9.1830    2.2270    1.2540 C.3    18  ASP18       0.1258
      6  CG       -10.1190    3.2280    1.8640 C.2    18  ASP18       0.3654
      7  OD1      -11.1530    3.6680    1.3060 O.co2  18  ASP18      -0.2456
      8  OD2       -9.7570    3.7260    2.9640 O.co2  18  ASP18      -0.2456
      9  CB        -5.0730    4.9940    2.8050 C.3    19  ILE19       0.0000
     10  CG2       -4.3720    6.2200    3.3260 C.3    19  ILE19       0.0000
     11  CG1       -5.9700    4.4790    3.9280 C.3    19  ILE19       0.0000
     12  CD1       -5.1800    3.8570    5.1220 C.3    19  ILE19       0.0000
     13  CB        -2.1460    4.3850   -1.3300 C.3    20  ILE20       0.0000
     14  CG2       -1.2570    4.4980   -2.6400 C.3    20  ILE20       0.0000
     15  CG1       -1.4410    5.1330   -0.1760 C.3    20  ILE20       0.0000
     16  CD1        0.0370    4.7250    0.0590 C.3    20  ILE20       0.0000
     17  CB        -7.2260    3.9060   -3.9570 C.3    21  TRP21       0.0066
     18  CG        -8.0780    3.1360   -4.9220 C.3    21  TRP21       0.0452
     19  CD1       -9.0450    3.6780   -5.6240 C.3    21  TRP21       0.1165
     20  NE1       -9.5590    2.7360   -6.4910 N.pl3  21  TRP21      -0.2376
     21  CE2       -8.9590    1.4790   -6.3190 C.ar   21  TRP21       0.0614
     22  CZ2       -9.1040    0.2160   -6.8210 C.ar   21  TRP21       0.0158
     23  CH2       -8.4150   -0.9370   -6.3400 C.ar   21  TRP21       0.0013
     24  CZ3       -7.4180   -0.6890   -5.3420 C.ar   21  TRP21      -0.0002
     25  CE3       -7.2370    0.6130   -4.8350 C.ar   21  TRP21      -0.0030
     26  CD2       -8.0160    1.7350   -5.2970 C.ar   21  TRP21      -0.0059
@<TRIPOS>BOND
     1    22    23   ar
     2    22    21   ar
     3    23    24   ar
     4    21    20    1
     5    21    26   ar
     6    24    25   ar
     7    20    19    1
     8    25    26   ar
     9    26    18    1
    10    19    18    1
    11    18    17    1
    12     3     2    1
    13     2     4    1
    14     2     1    1
    15     5     6    1
    16     7     6   ar
    17    13    15    1
    18    13    14    1
    19    15    16    1
    20     6     8   ar
    21     9    11    1
    22     9    10    1
    23    11    12    1
@<TRIPOS>MOLECULE
23693553
 46 48 0 0 0
SMALL
GASTEIGER

@<TRIPOS>ATOM
      1 O          -5.9471    3.5004    0.0109 O.2     1  LIG11      -0.2526
      2 O          -4.0864    4.3055   -2.8590 O.2     1  LIG11      -0.2731
      3 O          -6.9221    1.6819   -2.2526 O.2     1  LIG11      -0.2689
      4 O          -2.6680   -0.7252   -2.0491 O.co2   1  LIG11      -0.5479
      5 OXT        -3.6009    0.6029   -3.6609 O.co2   1  LIG11      -0.5479
      6 O          -7.6989   -3.4061   -6.2871 O.3     1  LIG11      -0.4515
      7 O          -5.9356   -2.7939   -4.9270 O.2     1  LIG11      -0.2227
      8 N          -5.5799    4.0830    2.2077 N.am    1  LIG11      -0.2801
      9 N          -3.9674    4.4349    0.5131 N.am    1  LIG11      -0.2879
     10 N          -4.7023    2.2879   -1.9729 N.am    1  LIG11      -0.2273
     11 N          -4.6536    2.3865   -4.9135 N.3     1  LIG11       0.2276
     12 N          -7.4118   -1.2116   -5.6914 N.ar    1  LIG11      -0.2526
     13 C          -4.7829    4.8349    3.2113 C.3     1  LIG11       0.0249
     14 C          -6.5654    3.0469    2.6451 C.3     1  LIG11       0.0249
     15 C          -5.2485    4.7050    4.6667 C.3     1  LIG11      -0.0344
     16 C          -6.8349    2.9451    4.1555 C.3     1  LIG11      -0.0344
     17 C          -5.6255    3.2790    4.9959 C.3     1  LIG11      -0.0497
     18 CA         -3.1955    3.8792   -0.6203 C.3     1  LIG11       0.1019
     19 C          -0.7889    5.0313   -0.2466 C.3     1  LIG11      -0.0356
     20 C          -2.1173    4.9207   -1.0532 C.3     1  LIG11      -0.0210
     21 C          -5.2108    3.9847    0.8599 C.2     1  LIG11       0.3033
     22 C          -4.7384    6.3354    2.8779 C.3     1  LIG11      -0.0464
     23 C          -7.9393    3.1619    1.9561 C.3     1  LIG11      -0.0464
     24 C          -4.0306    3.5099   -1.9085 C.2     1  LIG11       0.2429
     25 C          -0.0040    3.7097   -0.2902 C.3     1  LIG11      -0.0600
     26 C          -1.0024    5.4426    1.2163 C.3     1  LIG11      -0.0600
     27 C           0.0699    6.1241   -0.9241 C.3     1  LIG11      -0.0600
     28 CA         -4.1477    1.0334   -1.3764 C.3     1  LIG11       0.0730
     29 C          -5.0786    0.2535   -0.4283 C.3     1  LIG11      -0.0286
     30 C          -5.8890    2.1732   -2.7091 C.2     1  LIG11       0.2708
     31 CA         -5.8788    2.7604   -4.1393 C.3     1  LIG11       0.0579
     32 C          -5.8854   -0.9042   -1.0302 C.3     1  LIG11      -0.0513
     33 C          -7.1493    2.4514   -4.9422 C.3     1  LIG11       0.0261
     34 C          -3.4224    0.1860   -2.4651 C.2     1  LIG11       0.0626
     35 C          -7.4322    1.0448   -5.3841 C.ar    1  LIG11      -0.0158
     36 C          -6.6855   -1.6858    0.0212 C.3     1  LIG11      -0.0558
     37 C          -8.5693    0.6694   -6.1675 C.ar    1  LIG11       0.0038
     38 C          -6.7568   -0.1229   -5.1152 C.ar    1  LIG11       0.0202
     39 C          -8.5493   -0.7206   -6.3440 C.ar    1  LIG11       0.0598
     40 C          -7.6615   -0.8387    0.8250 C.3     1  LIG11      -0.0653
     41 C          -9.6337    1.4172   -6.7215 C.ar    1  LIG11      -0.0523
     42 C          -9.5806   -1.3662   -7.0583 C.ar    1  LIG11      -0.0371
     43 C         -10.6504    0.7747   -7.4296 C.ar    1  LIG11      -0.0611
     44 C          -6.9365   -2.5390   -5.5809 C.2     1  LIG11       0.4196
     45 C         -10.6223   -0.6018   -7.5928 C.ar    1  LIG11      -0.0598
     46 C          -7.2590   -4.7650   -6.2464 C.3     1  LIG11       0.0835
@<TRIPOS>BOND
     1     1    21    2
     2     2    24    2
     3     3    30    2
     4     4    34   ar
     5     5    34   ar
     6     6    44    1
     7     6    46    1
     8     7    44    2
     9     8    13    1
    10     8    14    1
    11     9    21   am
    12    10    24   am
    13    10    30   am
    14    12    39   ar
    15    12    38   ar
    16    12    44   am
    17    13    15    1
    18    13    22    1
    19    14    16    1
    20    14    23    1
    21    15    17    1
    22    16    17    1
    23    18     9    1
    24    18    24    1
    25    18    20    1
    26    19    20    1
    27    19    27    1
    28    19    26    1
    29    19    25    1
    30    21     8   am
    31    28    34    1
    32    28    29    1
    33    28    10    1
    34    29    32    1
    35    31    33    1
    36    31    11    1
    37    31    30    1
    38    32    36    1
    39    33    35    1
    40    35    38   ar
    41    35    37   ar
    42    36    40    1
    43    37    39   ar
    44    37    41   ar
    45    39    42   ar
    46    41    43   ar
    47    42    45   ar
    48    43    45   ar
@<TRIPOS>MOLECULE
../ET1/ET1_17-21_50CONFORMERS.pdb
 47 48 0 0 0
SMALL
GASTEIGER

@<TRIPOS>ATOM
      1  N         -5.1240    0.2200   -1.1680 N.3    17  LEU17      -0.1231
      2  CA        -6.4290   -0.3520   -1.3470 C.3    17  LEU17       0.1693
      3  CB        -6.5650   -1.4580   -0.3110 C.3    17  LEU17       0.0284
      4  CG        -7.7460   -2.4340   -0.5060 C.3    17  LEU17       0.0019
      5  CD1       -7.8580   -3.0370   -1.9450 C.3    17  LEU17       0.0001
      6  CD2       -7.5480   -3.6660    0.4700 C.3    17  LEU17       0.0001
      7  C         -7.5570    0.7230   -1.1910 C.2    17  LEU17       0.2592
      8  O         -8.5080    0.5920   -1.9290 O.2    17  LEU17      -0.2718
      9  N         -7.3530    1.6930   -0.3160 N.am   18  ASP18      -0.1960
     10  CA        -8.3710    2.6970    0.0290 C.3    18  ASP18       0.1840
     11  CB        -9.1830    2.2270    1.2540 C.3    18  ASP18       0.1450
     12  CG       -10.1190    3.2280    1.8640 C.2    18  ASP18       0.3671
     13  OD1      -11.1530    3.6680    1.3060 O.co2  18  ASP18      -0.2456
     14  OD2       -9.7570    3.7260    2.9640 O.co2  18  ASP18      -0.2456
     15  C         -7.6950    4.0470    0.2940 C.2    18  ASP18       0.2622
     16  O         -8.1320    5.0650   -0.2880 O.2    18  ASP18      -0.2715
     17  N         -6.7180    4.0860    1.1840 N.am   19  ILE19      -0.1963
     18  CA        -5.9940    5.2620    1.5960 C.3    19  ILE19       0.1727
     19  CB        -5.0730    4.9940    2.8050 C.3    19  ILE19       0.0290
     20  CG2       -4.3720    6.2200    3.3260 C.3    19  ILE19       0.0023
     21  CG1       -5.9700    4.4790    3.9280 C.3    19  ILE19       0.0022
     22  CD1       -5.1800    3.8570    5.1220 C.3    19  ILE19       0.0001
     23  C         -5.0600    5.7250    0.4830 C.2    19  ILE19       0.2616
     24  O         -4.9460    6.9140    0.1610 O.2    19  ILE19      -0.2715
     25  N         -4.3130    4.7870   -0.1330 N.am   20  ILE20      -0.1963
     26  CA        -3.5800    4.9710   -1.3970 C.3    20  ILE20       0.1727
     27  CB        -2.1460    4.3850   -1.3300 C.3    20  ILE20       0.0290
     28  CG2       -1.2570    4.4980   -2.6400 C.3    20  ILE20       0.0023
     29  CG1       -1.4410    5.1330   -0.1760 C.3    20  ILE20       0.0022
     30  CD1        0.0370    4.7250    0.0590 C.3    20  ILE20       0.0001
     31  C         -4.3770    4.3220   -2.4840 C.2    20  ILE20       0.2617
     32  O         -4.3780    3.0980   -2.4750 O.2    20  ILE20      -0.2715
     33  N         -5.1280    5.0160   -3.3140 N.am   21  TRP21      -0.1941
     34  CA        -5.8240    4.4130   -4.4310 C.3    21  TRP21       0.1982
     35  CB        -7.2260    3.9060   -3.9570 C.3    21  TRP21       0.0394
     36  CG        -8.0780    3.1360   -4.9220 C.3    21  TRP21       0.0475
     37  CD1       -9.0450    3.6780   -5.6240 C.3    21  TRP21       0.1166
     38  NE1       -9.5590    2.7360   -6.4910 N.pl3  21  TRP21      -0.2376
     39  CE2       -8.9590    1.4790   -6.3190 C.ar   21  TRP21       0.0614
     40  CZ2       -9.1040    0.2160   -6.8210 C.ar   21  TRP21       0.0158
     41  CH2       -8.4150   -0.9370   -6.3400 C.ar   21  TRP21       0.0013
     42  CZ3       -7.4180   -0.6890   -5.3420 C.ar   21  TRP21      -0.0002
     43  CE3       -7.2370    0.6130   -4.8350 C.ar   21  TRP21      -0.0030
     44  CD2       -8.0160    1.7350   -5.2970 C.ar   21  TRP21      -0.0059
     45  C         -5.8960    5.3640   -5.6200 C.2    21  TRP21       0.3842
     46  O         -5.4660    5.0720   -6.7740 O.co2  21  TRP21      -0.2437
     47  OXT       -6.0980    6.5780   -5.4070 O.co2  21  TRP21      -0.2437
@<TRIPOS>BOND
     1    40    41   ar
     2    40    39   ar
     3    41    42   ar
     4    39    38    1
     5    39    44   ar
     6    42    43   ar
     7    38    37    1
     8    43    44   ar
     9    44    36    1
    10    37    36    1
    11    36    35    1
    12    47    45   ar
    13     5     4    1
    14    35    34    1
    15    45    34    1
    16    45    46   ar
    17    34    33    1
    18     8     7    2
    19     4     6    1
    20     4     3    1
    21     2     3    1
    22     2     1    1
    23     2     7    1
    24     7     9   am
    25    33    31   am
    26    32    31    2
    27    31    26    1
    28     9    10    1
    29    10    11    1
    30    10    15    1
    31    26    27    1
    32    26    25    1
    33    11    12    1
    34    13    12   ar
    35    27    29    1
    36    27    28    1
    37    29    30    1
    38    16    15    2
    39    15    17   am
    40    12    14   ar
    41    25    23   am
    42    17    18    1
    43    23    24    2
    44    23    18    1
    45    18    19    1
    46    19    21    1
    47    19    20    1
    48    21    22    1
