@<TRIPOS>MOLECULE
../ET1/ET1_17-21_50CONFORMERS_NOBACKBONE.pdb
 26 23 0 0 0
SMALL
GASTEIGER

@<TRIPOS>ATOM
      1  CB        -6.1850   -2.0250    0.0230 C.3    17  LEU17       0.0000
      2  CG        -7.2330   -3.1450    0.0240 C.3    17  LEU17       0.0000
      3  CD1       -7.0910   -4.1030   -1.1650 C.3    17  LEU17       0.0000
      4  CD2       -7.3150   -3.8840    1.2940 C.3    17  LEU17       0.0000
      5  CB        -9.2520    0.9570    1.6500 C.3    18  ASP18       0.1258
      6  CG       -10.7110    1.3620    2.1070 C.2    18  ASP18       0.3654
      7  OD1      -11.5770    1.6570    1.2290 O.co2  18  ASP18      -0.2456
      8  OD2      -10.8500    1.6470    3.3270 O.co2  18  ASP18      -0.2456
      9  CB        -5.8410    4.7000    2.5850 C.3    19  ILE19       0.0000
     10  CG2       -5.3230    6.1240    2.9590 C.3    19  ILE19       0.0000
     11  CG1       -6.3830    4.1050    3.9430 C.3    19  ILE19       0.0000
     12  CD1       -7.6300    4.7940    4.6160 C.3    19  ILE19       0.0000
     13  CB        -2.8500    5.7740   -1.3170 C.3    20  ILE20       0.0000
     14  CG2       -2.5200    6.4670   -0.0010 C.3    20  ILE20       0.0000
     15  CG1       -2.1620    4.4070   -1.5700 C.3    20  ILE20       0.0000
     16  CD1       -0.6680    4.4570   -1.4100 C.3    20  ILE20       0.0000
     17  CB        -6.4800    5.9390   -5.5290 C.3    21  TRP21       0.0066
     18  CG        -7.5080    5.3450   -4.6240 C.3    21  TRP21       0.0452
     19  CD1       -7.8630    5.8950   -3.4140 C.3    21  TRP21       0.1165
     20  NE1       -8.6910    5.0220   -2.6780 N.pl3  21  TRP21      -0.2376
     21  CE2       -9.0720    3.9970   -3.5170 C.ar   21  TRP21       0.0614
     22  CZ2       -9.7960    2.8120   -3.3260 C.ar   21  TRP21       0.0158
     23  CH2       -9.8130    1.7890   -4.2710 C.ar   21  TRP21       0.0013
     24  CZ3       -9.2530    1.9610   -5.5170 C.ar   21  TRP21      -0.0002
     25  CE3       -8.3960    3.0060   -5.6370 C.ar   21  TRP21      -0.0030
     26  CD2       -8.3060    4.1210   -4.7250 C.ar   21  TRP21      -0.0059
@<TRIPOS>BOND
     1    22    23   ar
     2    22    21   ar
     3    23    24   ar
     4    21    20    1
     5    21    26   ar
     6    24    25   ar
     7    20    19    1
     8    25    26   ar
     9    26    18    1
    10    19    18    1
    11    18    17    1
    12     3     2    1
    13     2     4    1
    14     2     1    1
    15     5     6    1
    16     7     6   ar
    17    13    15    1
    18    13    14    1
    19    15    16    1
    20     6     8   ar
    21     9    11    1
    22     9    10    1
    23    11    12    1
@<TRIPOS>MOLECULE
9912992
 34 37 0 0 0
SMALL
GASTEIGER

@<TRIPOS>ATOM
      1 S          -5.0986    1.2004   -3.2608 S.O2    1  LIG11       0.0908
      2 O          -7.3904    1.5125   -6.3459 O.3     1  LIG11      -0.4435
      3 O          -6.3117    1.1562   -8.7504 O.3     1  LIG11      -0.4771
      4 O          -6.1189    0.1942   -3.4968 O.2     1  LIG11      -0.1484
      5 O          -3.6886    0.9018   -3.4172 O.2     1  LIG11      -0.1484
      6 O          -7.5270    4.3724   -6.2606 O.3     1  LIG11      -0.4914
      7 N          -5.5174    2.5586   -4.1926 N.pl3   1  LIG11      -0.1950
      8 N          -3.9716    2.8354   -5.8503 N.ar    1  LIG11      -0.2073
      9 N          -4.2655    2.1017   -8.0893 N.ar    1  LIG11      -0.1899
     10 N          -6.4278    1.5261   -0.9596 N.ar    1  LIG11      -0.2351
     11 N           0.2487    4.3754   -8.1886 N.ar    1  LIG11      -0.2632
     12 C          -5.2190    2.4172   -5.5784 C.ar    1  LIG11       0.1882
     13 C          -6.0912    1.9006   -6.5190 C.ar    1  LIG11       0.2307
     14 C          -5.3197    1.9241   -1.6323 C.ar    1  LIG11       0.1969
     15 C          -5.5206    1.7257   -7.7664 C.ar    1  LIG11       0.2638
     16 C          -3.5467    2.6754   -7.1126 C.ar    1  LIG11       0.1659
     17 C          -4.4629    2.9395   -1.2289 C.ar    1  LIG11      -0.0160
     18 C          -2.2337    3.2352   -7.4686 C.ar    1  LIG11       0.0222
     19 C          -8.2299    2.2196   -5.5141 C.ar    1  LIG11       0.1702
     20 C          -5.8834    3.2083    0.7003 C.ar    1  LIG11      -0.0322
     21 C          -4.7585    3.5911   -0.0367 C.ar    1  LIG11      -0.0541
     22 C          -6.6676    2.1674    0.2040 C.ar    1  LIG11       0.0327
     23 C          -8.3068    3.6208   -5.4225 C.ar    1  LIG11       0.1621
     24 C          -9.0320    1.4199   -4.6928 C.ar    1  LIG11      -0.0157
     25 C          -6.2358    3.8781    1.9917 C.3     1  LIG11      -0.0383
     26 C          -1.6547    4.2659   -6.7135 C.ar    1  LIG11      -0.0329
     27 C          -1.5229    2.7877   -8.5909 C.ar    1  LIG11      -0.0329
     28 C          -9.1708    4.1954   -4.4823 C.ar    1  LIG11      -0.0163
     29 C          -9.8748    2.0016   -3.7494 C.ar    1  LIG11      -0.0581
     30 C          -9.9399    3.3877   -3.6411 C.ar    1  LIG11      -0.0581
     31 C          -0.4377    4.7982   -7.1083 C.ar    1  LIG11       0.0282
     32 C          -0.3069    3.3753   -8.9025 C.ar    1  LIG11       0.0282
     33 C          -5.5860    0.7732   -9.9134 C.3     1  LIG11       0.0805
     34 C          -6.9680    5.5481   -5.6739 C.3     1  LIG11       0.0790
@<TRIPOS>BOND
     1     1     4    2
     2     1     5    2
     3     1     7    1
     4     1    14    1
     5     2    13    1
     6     2    19    1
     7     3    15    1
     8     3    33    1
     9     6    23    1
    10     6    34    1
    11     7    12    1
    12     8    12   ar
    13     8    16   ar
    14     9    15   ar
    15     9    16   ar
    16    10    14   ar
    17    10    22   ar
    18    11    31   ar
    19    11    32   ar
    20    12    13   ar
    21    13    15   ar
    22    14    17   ar
    23    16    18    1
    24    17    21   ar
    25    18    26   ar
    26    18    27   ar
    27    19    23   ar
    28    19    24   ar
    29    20    21   ar
    30    20    22   ar
    31    20    25    1
    32    23    28   ar
    33    24    29   ar
    34    26    31   ar
    35    27    32   ar
    36    28    30   ar
    37    29    30   ar
@<TRIPOS>MOLECULE
../ET1/ET1_17-21_50CONFORMERS.pdb
 47 48 0 0 0
SMALL
GASTEIGER

@<TRIPOS>ATOM
      1  N         -5.1220   -0.1670   -1.1960 N.3    17  LEU17      -0.1231
      2  CA        -6.2500   -1.0200   -1.1700 C.3    17  LEU17       0.1693
      3  CB        -6.1850   -2.0250    0.0230 C.3    17  LEU17       0.0284
      4  CG        -7.2330   -3.1450    0.0240 C.3    17  LEU17       0.0019
      5  CD1       -7.0910   -4.1030   -1.1650 C.3    17  LEU17       0.0001
      6  CD2       -7.3150   -3.8840    1.2940 C.3    17  LEU17       0.0001
      7  C         -7.5770   -0.2120   -1.0750 C.2    17  LEU17       0.2592
      8  O         -8.4900   -0.4890   -1.8500 O.2    17  LEU17      -0.2718
      9  N         -7.6750    0.6750   -0.1440 N.am   18  ASP18      -0.1960
     10  CA        -8.7690    1.4940    0.3030 C.3    18  ASP18       0.1840
     11  CB        -9.2520    0.9570    1.6500 C.3    18  ASP18       0.1450
     12  CG       -10.7110    1.3620    2.1070 C.2    18  ASP18       0.3671
     13  OD1      -11.5770    1.6570    1.2290 O.co2  18  ASP18      -0.2456
     14  OD2      -10.8500    1.6470    3.3270 O.co2  18  ASP18      -0.2456
     15  C         -8.4200    2.9610    0.4830 C.2    18  ASP18       0.2622
     16  O         -9.1400    3.8210    0.0050 O.2    18  ASP18      -0.2715
     17  N         -7.3560    3.3090    1.1820 N.am   19  ILE19      -0.1963
     18  CA        -6.8520    4.7000    1.4380 C.3    19  ILE19       0.1727
     19  CB        -5.8410    4.7000    2.5850 C.3    19  ILE19       0.0290
     20  CG2       -5.3230    6.1240    2.9590 C.3    19  ILE19       0.0023
     21  CG1       -6.3830    4.1050    3.9430 C.3    19  ILE19       0.0022
     22  CD1       -7.6300    4.7940    4.6160 C.3    19  ILE19       0.0001
     23  C         -6.2690    5.4260    0.2030 C.2    19  ILE19       0.2616
     24  O         -6.7830    6.4780   -0.1650 O.2    19  ILE19      -0.2715
     25  N         -5.0370    5.0080   -0.3080 N.am   20  ILE20      -0.1963
     26  CA        -4.3660    5.6630   -1.4700 C.3    20  ILE20       0.1727
     27  CB        -2.8500    5.7740   -1.3170 C.3    20  ILE20       0.0290
     28  CG2       -2.5200    6.4670   -0.0010 C.3    20  ILE20       0.0023
     29  CG1       -2.1620    4.4070   -1.5700 C.3    20  ILE20       0.0022
     30  CD1       -0.6680    4.4570   -1.4100 C.3    20  ILE20       0.0001
     31  C         -4.7850    4.9740   -2.7670 C.2    20  ILE20       0.2617
     32  O         -5.1110    3.7960   -2.7510 O.2    20  ILE20      -0.2715
     33  N         -4.7000    5.7720   -3.8140 N.am   21  TRP21      -0.1941
     34  CA        -5.0330    5.4840   -5.1810 C.3    21  TRP21       0.1982
     35  CB        -6.4800    5.9390   -5.5290 C.3    21  TRP21       0.0394
     36  CG        -7.5080    5.3450   -4.6240 C.3    21  TRP21       0.0475
     37  CD1       -7.8630    5.8950   -3.4140 C.3    21  TRP21       0.1166
     38  NE1       -8.6910    5.0220   -2.6780 N.pl3  21  TRP21      -0.2376
     39  CE2       -9.0720    3.9970   -3.5170 C.ar   21  TRP21       0.0614
     40  CZ2       -9.7960    2.8120   -3.3260 C.ar   21  TRP21       0.0158
     41  CH2       -9.8130    1.7890   -4.2710 C.ar   21  TRP21       0.0013
     42  CZ3       -9.2530    1.9610   -5.5170 C.ar   21  TRP21      -0.0002
     43  CE3       -8.3960    3.0060   -5.6370 C.ar   21  TRP21      -0.0030
     44  CD2       -8.3060    4.1210   -4.7250 C.ar   21  TRP21      -0.0059
     45  C         -3.9700    6.2220   -6.0900 C.2    21  TRP21       0.3842
     46  O         -3.4270    7.2250   -5.6040 O.co2  21  TRP21      -0.2437
     47  OXT       -3.7560    5.7930   -7.2710 O.co2  21  TRP21      -0.2437
@<TRIPOS>BOND
     1    40    41   ar
     2    40    39   ar
     3    41    42   ar
     4    39    38    1
     5    39    44   ar
     6    42    43   ar
     7    38    37    1
     8    43    44   ar
     9    44    36    1
    10    37    36    1
    11    36    35    1
    12    47    45   ar
    13     5     4    1
    14    35    34    1
    15    45    34    1
    16    45    46   ar
    17    34    33    1
    18     8     7    2
    19     4     6    1
    20     4     3    1
    21     2     3    1
    22     2     1    1
    23     2     7    1
    24     7     9   am
    25    33    31   am
    26    32    31    2
    27    31    26    1
    28     9    10    1
    29    10    11    1
    30    10    15    1
    31    26    27    1
    32    26    25    1
    33    11    12    1
    34    13    12   ar
    35    27    29    1
    36    27    28    1
    37    29    30    1
    38    16    15    2
    39    15    17   am
    40    12    14   ar
    41    25    23   am
    42    17    18    1
    43    23    24    2
    44    23    18    1
    45    18    19    1
    46    19    21    1
    47    19    20    1
    48    21    22    1
