@<TRIPOS>MOLECULE
../ET1/ET1_17-21_50CONFORMERS_NOBACKBONE.pdb
 26 23 0 0 0
SMALL
GASTEIGER

@<TRIPOS>ATOM
      1  CB        -6.0380   -1.5180   -0.0370 C.3    17  LEU17       0.0000
      2  CG        -7.1840   -2.4290   -0.2350 C.3    17  LEU17       0.0000
      3  CD1       -6.7970   -3.5870   -1.1730 C.3    17  LEU17       0.0000
      4  CD2       -7.8660   -3.1100    0.9420 C.3    17  LEU17       0.0000
      5  CB        -9.2220    2.1420    0.8650 C.3    18  ASP18       0.1258
      6  CG       -10.4510    3.0160    0.7920 C.2    18  ASP18       0.3654
      7  OD1      -11.1710    2.9190   -0.1710 O.co2  18  ASP18      -0.2456
      8  OD2      -10.5970    3.8410    1.7050 O.co2  18  ASP18      -0.2456
      9  CB        -5.7050    5.4320    2.5820 C.3    19  ILE19       0.0000
     10  CG2       -4.5690    4.4470    2.6960 C.3    19  ILE19       0.0000
     11  CG1       -5.3120    6.7960    3.2120 C.3    19  ILE19       0.0000
     12  CD1       -6.5720    7.7280    3.3490 C.3    19  ILE19       0.0000
     13  CB        -2.1810    5.4270   -1.2910 C.3    20  ILE20       0.0000
     14  CG2       -1.7020    6.8010   -0.7900 C.3    20  ILE20       0.0000
     15  CG1       -1.6700    4.3770   -0.2680 C.3    20  ILE20       0.0000
     16  CD1       -0.2050    4.1190   -0.3350 C.3    20  ILE20       0.0000
     17  CB        -6.5390    3.3040   -4.4160 C.3    21  TRP21       0.0066
     18  CG        -7.2490    2.3830   -5.4230 C.3    21  TRP21       0.0452
     19  CD1       -8.3550    2.7960   -6.1520 C.3    21  TRP21       0.1165
     20  NE1       -8.8630    1.7830   -6.9380 N.pl3  21  TRP21      -0.2376
     21  CE2       -8.0920    0.6800   -6.7530 C.ar   21  TRP21       0.0614
     22  CZ2       -8.2090   -0.5880   -7.3570 C.ar   21  TRP21       0.0158
     23  CH2       -7.2400   -1.5830   -7.0600 C.ar   21  TRP21       0.0013
     24  CZ3       -6.2600   -1.2970   -6.0270 C.ar   21  TRP21      -0.0002
     25  CE3       -6.2230   -0.0490   -5.4100 C.ar   21  TRP21      -0.0030
     26  CD2       -7.0720    0.9930   -5.8380 C.ar   21  TRP21      -0.0059
@<TRIPOS>BOND
     1    22    23   ar
     2    22    21   ar
     3    23    24   ar
     4    21    20    1
     5    21    26   ar
     6    24    25   ar
     7    20    19    1
     8    25    26   ar
     9    26    18    1
    10    19    18    1
    11    18    17    1
    12     3     2    1
    13     2     4    1
    14     2     1    1
    15     5     6    1
    16     7     6   ar
    17    13    15    1
    18    13    14    1
    19    15    16    1
    20     6     8   ar
    21     9    11    1
    22     9    10    1
    23    11    12    1
@<TRIPOS>MOLECULE
23693553
 46 48 0 0 0
SMALL
GASTEIGER

@<TRIPOS>ATOM
      1 O          -2.3290    4.4523    2.6147 O.2     1  LIG11      -0.2526
      2 O          -3.5931    0.7724    1.8034 O.2     1  LIG11      -0.2731
      3 O          -5.7440    2.5320   -0.5447 O.2     1  LIG11      -0.2689
      4 O          -3.6342    0.1720   -2.8611 O.co2   1  LIG11      -0.5479
      5 OXT        -2.6802   -1.8441   -2.3560 O.co2   1  LIG11      -0.5479
      6 O         -10.7235   -0.9303   -6.3699 O.3     1  LIG11      -0.4515
      7 O         -11.2297    0.6123   -4.7218 O.2     1  LIG11      -0.2227
      8 N          -4.4570    5.3162    2.7497 N.am    1  LIG11      -0.2801
      9 N          -3.8681    3.7219    1.1257 N.am    1  LIG11      -0.2879
     10 N          -4.3140    0.7442   -0.3493 N.am    1  LIG11      -0.2273
     11 N          -7.5781    0.7334   -1.5393 N.3     1  LIG11       0.2276
     12 N          -9.0704    0.3369   -5.4165 N.ar    1  LIG11      -0.2526
     13 C          -5.8926    5.2432    2.4158 C.3     1  LIG11       0.0249
     14 C          -3.9701    6.2763    3.7669 C.3     1  LIG11       0.0249
     15 C          -6.7231    6.4578    2.8514 C.3     1  LIG11      -0.0344
     16 C          -4.8393    7.5299    3.9747 C.3     1  LIG11      -0.0344
     17 C          -5.8823    7.7178    2.8903 C.3     1  LIG11      -0.0497
     18 CA         -2.9788    2.7474    0.5083 C.3     1  LIG11       0.1019
     19 C          -1.6944    4.3406   -1.2031 C.3     1  LIG11      -0.0356
     20 C          -2.5983    3.0963   -0.9455 C.3     1  LIG11      -0.0210
     21 C          -3.4861    4.4730    2.2036 C.2     1  LIG11       0.3033
     22 C          -6.5338    3.9645    2.9677 C.3     1  LIG11      -0.0464
     23 C          -3.6983    5.5995    5.1158 C.3     1  LIG11      -0.0464
     24 C          -3.5991    1.3271    0.6973 C.2     1  LIG11       0.2429
     25 C          -0.3762    4.2626   -0.4182 C.3     1  LIG11      -0.0600
     26 C          -2.4111    5.6615   -0.8741 C.3     1  LIG11      -0.0600
     27 C          -1.3562    4.3618   -2.7103 C.3     1  LIG11      -0.0600
     28 CA         -3.8784   -0.6536   -0.6582 C.3     1  LIG11       0.0730
     29 C          -4.9236   -1.7782   -0.4897 C.3     1  LIG11      -0.0286
     30 C          -5.3103    1.4545   -0.9945 C.2     1  LIG11       0.2708
     31 CA         -6.1589    0.8145   -2.1148 C.3     1  LIG11       0.0579
     32 C          -5.8558   -1.6675    0.7178 C.3     1  LIG11      -0.0513
     33 C          -6.2320    1.6701   -3.3981 C.3     1  LIG11       0.0261
     34 C          -3.3056   -0.7880   -2.0984 C.2     1  LIG11       0.0626
     35 C          -7.1655    1.0581   -4.4165 C.ar    1  LIG11      -0.0158
     36 C          -6.9403   -2.7567    0.7130 C.3     1  LIG11      -0.0558
     37 C          -6.8183    0.1921   -5.4973 C.ar    1  LIG11       0.0038
     38 C          -8.5340    1.2135   -4.4760 C.ar    1  LIG11       0.0202
     39 C          -8.0043   -0.2031   -6.1381 C.ar    1  LIG11       0.0598
     40 C          -7.9996   -2.5784   -0.3692 C.3     1  LIG11      -0.0653
     41 C          -5.5853   -0.2931   -5.9842 C.ar    1  LIG11      -0.0523
     42 C          -7.9705   -1.0274   -7.2813 C.ar    1  LIG11      -0.0371
     43 C          -5.5561   -1.1105   -7.1174 C.ar    1  LIG11      -0.0611
     44 C         -10.4539    0.0569   -5.4865 C.2     1  LIG11       0.4196
     45 C          -6.7335   -1.4642   -7.7616 C.ar    1  LIG11      -0.0598
     46 C         -12.0791   -1.3832   -6.3720 C.3     1  LIG11       0.0835
@<TRIPOS>BOND
     1     1    21    2
     2     2    24    2
     3     3    30    2
     4     4    34   ar
     5     5    34   ar
     6     6    44    1
     7     6    46    1
     8     7    44    2
     9     8    13    1
    10     8    14    1
    11     9    21   am
    12    10    24   am
    13    10    30   am
    14    12    39   ar
    15    12    38   ar
    16    12    44   am
    17    13    15    1
    18    13    22    1
    19    14    16    1
    20    14    23    1
    21    15    17    1
    22    16    17    1
    23    18     9    1
    24    18    24    1
    25    18    20    1
    26    19    20    1
    27    19    27    1
    28    19    26    1
    29    19    25    1
    30    21     8   am
    31    28    34    1
    32    28    29    1
    33    28    10    1
    34    29    32    1
    35    31    33    1
    36    31    11    1
    37    31    30    1
    38    32    36    1
    39    33    35    1
    40    35    38   ar
    41    35    37   ar
    42    36    40    1
    43    37    39   ar
    44    37    41   ar
    45    39    42   ar
    46    41    43   ar
    47    42    45   ar
    48    43    45   ar
@<TRIPOS>MOLECULE
../ET1/ET1_17-21_50CONFORMERS.pdb
 47 48 0 0 0
SMALL
GASTEIGER

@<TRIPOS>ATOM
      1  N         -4.4120    0.0600   -1.0240 N.3    17  LEU17      -0.1231
      2  CA        -5.8150   -0.5190   -1.1630 C.3    17  LEU17       0.1693
      3  CB        -6.0380   -1.5180   -0.0370 C.3    17  LEU17       0.0284
      4  CG        -7.1840   -2.4290   -0.2350 C.3    17  LEU17       0.0019
      5  CD1       -6.7970   -3.5870   -1.1730 C.3    17  LEU17       0.0001
      6  CD2       -7.8660   -3.1100    0.9420 C.3    17  LEU17       0.0001
      7  C         -6.9320    0.5370   -1.3110 C.2    17  LEU17       0.2592
      8  O         -7.7610    0.4630   -2.2150 O.2    17  LEU17      -0.2718
      9  N         -7.1210    1.4070   -0.2900 N.am   18  ASP18      -0.1960
     10  CA        -8.2550    2.3870   -0.2680 C.3    18  ASP18       0.1840
     11  CB        -9.2220    2.1420    0.8650 C.3    18  ASP18       0.1450
     12  CG       -10.4510    3.0160    0.7920 C.2    18  ASP18       0.3671
     13  OD1      -11.1710    2.9190   -0.1710 O.co2  18  ASP18      -0.2456
     14  OD2      -10.5970    3.8410    1.7050 O.co2  18  ASP18      -0.2456
     15  C         -7.7530    3.7960   -0.1690 C.2    18  ASP18       0.2622
     16  O         -8.1350    4.6240   -0.9530 O.2    18  ASP18      -0.2715
     17  N         -6.9590    4.1300    0.8310 N.am   19  ILE19      -0.1963
     18  CA        -6.3530    5.4560    1.1480 C.3    19  ILE19       0.1727
     19  CB        -5.7050    5.4320    2.5820 C.3    19  ILE19       0.0290
     20  CG2       -4.5690    4.4470    2.6960 C.3    19  ILE19       0.0023
     21  CG1       -5.3120    6.7960    3.2120 C.3    19  ILE19       0.0022
     22  CD1       -6.5720    7.7280    3.3490 C.3    19  ILE19       0.0001
     23  C         -5.2830    6.0050    0.1410 C.2    19  ILE19       0.2616
     24  O         -5.0530    7.2120    0.0400 O.2    19  ILE19      -0.2715
     25  N         -4.5780    5.0880   -0.5010 N.am   20  ILE20      -0.1963
     26  CA        -3.7350    5.3890   -1.6400 C.3    20  ILE20       0.1727
     27  CB        -2.1810    5.4270   -1.2910 C.3    20  ILE20       0.0290
     28  CG2       -1.7020    6.8010   -0.7900 C.3    20  ILE20       0.0023
     29  CG1       -1.6700    4.3770   -0.2680 C.3    20  ILE20       0.0022
     30  CD1       -0.2050    4.1190   -0.3350 C.3    20  ILE20       0.0001
     31  C         -4.0940    4.4380   -2.7850 C.2    20  ILE20       0.2617
     32  O         -3.6300    3.2730   -2.7920 O.2    20  ILE20      -0.2715
     33  N         -4.8770    4.9360   -3.7880 N.am   21  TRP21      -0.1941
     34  CA        -5.3760    4.2020   -4.9720 C.3    21  TRP21       0.1982
     35  CB        -6.5390    3.3040   -4.4160 C.3    21  TRP21       0.0394
     36  CG        -7.2490    2.3830   -5.4230 C.3    21  TRP21       0.0475
     37  CD1       -8.3550    2.7960   -6.1520 C.3    21  TRP21       0.1166
     38  NE1       -8.8630    1.7830   -6.9380 N.pl3  21  TRP21      -0.2376
     39  CE2       -8.0920    0.6800   -6.7530 C.ar   21  TRP21       0.0614
     40  CZ2       -8.2090   -0.5880   -7.3570 C.ar   21  TRP21       0.0158
     41  CH2       -7.2400   -1.5830   -7.0600 C.ar   21  TRP21       0.0013
     42  CZ3       -6.2600   -1.2970   -6.0270 C.ar   21  TRP21      -0.0002
     43  CE3       -6.2230   -0.0490   -5.4100 C.ar   21  TRP21      -0.0030
     44  CD2       -7.0720    0.9930   -5.8380 C.ar   21  TRP21      -0.0059
     45  C         -5.7150    5.0760   -6.2070 C.2    21  TRP21       0.3842
     46  O         -6.4530    6.0880   -6.0380 O.co2  21  TRP21      -0.2437
     47  OXT       -5.3280    4.6980   -7.3490 O.co2  21  TRP21      -0.2437
@<TRIPOS>BOND
     1    40    41   ar
     2    40    39   ar
     3    41    42   ar
     4    39    38    1
     5    39    44   ar
     6    42    43   ar
     7    38    37    1
     8    43    44   ar
     9    44    36    1
    10    37    36    1
    11    36    35    1
    12    47    45   ar
    13     5     4    1
    14    35    34    1
    15    45    34    1
    16    45    46   ar
    17    34    33    1
    18     8     7    2
    19     4     6    1
    20     4     3    1
    21     2     3    1
    22     2     1    1
    23     2     7    1
    24     7     9   am
    25    33    31   am
    26    32    31    2
    27    31    26    1
    28     9    10    1
    29    10    11    1
    30    10    15    1
    31    26    27    1
    32    26    25    1
    33    11    12    1
    34    13    12   ar
    35    27    29    1
    36    27    28    1
    37    29    30    1
    38    16    15    2
    39    15    17   am
    40    12    14   ar
    41    25    23   am
    42    17    18    1
    43    23    24    2
    44    23    18    1
    45    18    19    1
    46    19    21    1
    47    19    20    1
    48    21    22    1
