@<TRIPOS>MOLECULE
../ET1/ET1_17-21_50CONFORMERS_NOBACKBONE.pdb
 26 23 0 0 0
SMALL
GASTEIGER

@<TRIPOS>ATOM
      1  CB        -5.9400   -2.0450   -1.1720 C.3    17  LEU17       0.0000
      2  CG        -7.3480   -2.7230   -1.2450 C.3    17  LEU17       0.0000
      3  CD1       -7.7650   -3.2050   -2.6260 C.3    17  LEU17       0.0000
      4  CD2       -7.3690   -3.7850   -0.1150 C.3    17  LEU17       0.0000
      5  CB        -9.2180    0.9140    1.4810 C.3    18  ASP18       0.1258
      6  CG       -10.2990    1.9900    1.8220 C.2    18  ASP18       0.3654
      7  OD1      -11.2830    2.1470    1.0850 O.co2  18  ASP18      -0.2456
      8  OD2      -10.1960    2.7130    2.8240 O.co2  18  ASP18      -0.2456
      9  CB        -5.1500    3.9810    3.1070 C.3    19  ILE19       0.0000
     10  CG2       -4.8530    5.2880    3.9490 C.3    19  ILE19       0.0000
     11  CG1       -5.3540    2.7650    4.0520 C.3    19  ILE19       0.0000
     12  CD1       -6.7440    2.6910    4.7780 C.3    19  ILE19       0.0000
     13  CB        -2.8150    5.5810   -0.8870 C.3    20  ILE20       0.0000
     14  CG2       -2.5270    6.1070    0.5620 C.3    20  ILE20       0.0000
     15  CG1       -1.9460    4.3700   -1.2540 C.3    20  ILE20       0.0000
     16  CD1       -0.4660    4.7680   -1.0890 C.3    20  ILE20       0.0000
     17  CB        -6.5670    5.2890   -5.1920 C.3    21  TRP21       0.0066
     18  CG        -7.6370    4.5460   -4.4460 C.3    21  TRP21       0.0452
     19  CD1       -7.9760    4.8320   -3.1780 C.3    21  TRP21       0.1165
     20  NE1       -8.9670    3.9650   -2.8200 N.pl3  21  TRP21      -0.2376
     21  CE2       -9.3160    3.0730   -3.8500 C.ar   21  TRP21       0.0614
     22  CZ2      -10.2780    1.9910   -3.9100 C.ar   21  TRP21       0.0158
     23  CH2      -10.3530    1.2810   -5.1340 C.ar   21  TRP21       0.0013
     24  CZ3       -9.5340    1.6440   -6.1950 C.ar   21  TRP21      -0.0002
     25  CE3       -8.6260    2.7510   -6.1090 C.ar   21  TRP21      -0.0030
     26  CD2       -8.4790    3.4760   -4.8900 C.ar   21  TRP21      -0.0059
@<TRIPOS>BOND
     1    22    23   ar
     2    22    21   ar
     3    23    24   ar
     4    21    20    1
     5    21    26   ar
     6    24    25   ar
     7    20    19    1
     8    25    26   ar
     9    26    18    1
    10    19    18    1
    11    18    17    1
    12     3     2    1
    13     2     4    1
    14     2     1    1
    15     5     6    1
    16     7     6   ar
    17    13    15    1
    18    13    14    1
    19    15    16    1
    20     6     8   ar
    21     9    11    1
    22     9    10    1
    23    11    12    1
@<TRIPOS>MOLECULE
16004692
 32 34 0 0 0
SMALL
GASTEIGER

@<TRIPOS>ATOM
      1 BR         -8.0397    4.0781   -7.5873 Br      1  LIG11      -0.0503
      2 BR         -3.9612    4.4823   -2.8732 Br      1  LIG11      -0.0472
      3 S          -9.6653   -2.3916   -5.0090 S.O2    1  LIG11       0.1104
      4 O         -10.4650    2.0630   -1.4677 O.3     1  LIG11      -0.4724
      5 O          -8.6759   -1.4633   -5.4886 O.2     1  LIG11      -0.1381
      6 O         -10.1010   -3.5132   -5.8029 O.2     1  LIG11      -0.1381
      7 O          -8.0508    0.7787   -0.7049 O.3     1  LIG11      -0.4590
      8 N          -9.1688   -3.0142   -3.5482 N.3     1  LIG11      -0.1771
      9 N         -11.0752   -1.5792   -4.6388 N.pl3   1  LIG11      -0.1889
     10 N         -11.7695   -1.6343   -2.5295 N.ar    1  LIG11      -0.2186
     11 N         -11.4716    0.0681   -0.9310 N.ar    1  LIG11      -0.2008
     12 N          -5.9997    1.1031   -1.6436 N.ar    1  LIG11      -0.2022
     13 N          -7.2742    2.9808   -0.9020 N.ar    1  LIG11      -0.2022
     14 C          -8.1776   -2.2795   -2.7556 C.3     1  LIG11       0.0185
     15 C         -10.6817    0.4547   -3.2274 C.ar    1  LIG11       0.0848
     16 C         -11.1609   -0.8389   -3.4393 C.ar    1  LIG11       0.1532
     17 C          -7.6836   -3.1781   -1.6254 C.3     1  LIG11      -0.0416
     18 C         -10.0701    1.3429   -4.2774 C.ar    1  LIG11      -0.0094
     19 C         -10.8691    0.8183   -1.8850 C.ar    1  LIG11       0.2276
     20 C          -6.5720   -2.5152   -0.8284 C.3     1  LIG11      -0.0641
     21 C          -9.1914    2.4024   -3.9639 C.ar    1  LIG11      -0.0527
     22 C         -10.3362    1.1857   -5.6528 C.ar    1  LIG11      -0.0527
     23 C         -10.0516    2.1604   -0.1000 C.3     1  LIG11       0.1252
     24 C          -8.6068    3.2305   -4.9330 C.ar    1  LIG11      -0.0472
     25 C          -9.7246    1.9791   -6.6392 C.ar    1  LIG11      -0.0472
     26 C         -11.9057   -1.1260   -1.3100 C.ar    1  LIG11       0.1219
     27 C          -8.9201    1.2114    0.3373 C.3     1  LIG11       0.1267
     28 C          -8.8626    3.0015   -6.2731 C.ar    1  LIG11       0.0179
     29 C          -7.0569    1.6623   -1.0369 C.ar    1  LIG11       0.3180
     30 C          -5.0892    1.9566   -2.1573 C.ar    1  LIG11       0.0483
     31 C          -6.3409    3.7880   -1.4529 C.ar    1  LIG11       0.0483
     32 C          -5.2191    3.3243   -2.1013 C.ar    1  LIG11       0.0543
@<TRIPOS>BOND
     1     1    28    1
     2     2    32    1
     3     3     5    2
     4     3     6    2
     5     3     8    1
     6     3     9    1
     7     4    19    1
     8     4    23    1
     9     7    27    1
    10     7    29    1
    11     8    14    1
    12     9    16    1
    13    10    16   ar
    14    10    26   ar
    15    11    19   ar
    16    11    26   ar
    17    12    29   ar
    18    12    30   ar
    19    13    29   ar
    20    13    31   ar
    21    14    17    1
    22    15    16   ar
    23    15    18    1
    24    15    19   ar
    25    17    20    1
    26    18    21   ar
    27    18    22   ar
    28    21    24   ar
    29    22    25   ar
    30    23    27    1
    31    24    28   ar
    32    25    28   ar
    33    30    32   ar
    34    31    32   ar
@<TRIPOS>MOLECULE
../ET1/ET1_17-21_50CONFORMERS.pdb
 47 48 0 0 0
SMALL
GASTEIGER

@<TRIPOS>ATOM
      1  N         -4.7170    0.0040   -1.5390 N.3    17  LEU17      -0.1231
      2  CA        -5.9340   -0.7030   -1.8900 C.3    17  LEU17       0.1693
      3  CB        -5.9400   -2.0450   -1.1720 C.3    17  LEU17       0.0284
      4  CG        -7.3480   -2.7230   -1.2450 C.3    17  LEU17       0.0019
      5  CD1       -7.7650   -3.2050   -2.6260 C.3    17  LEU17       0.0001
      6  CD2       -7.3690   -3.7850   -0.1150 C.3    17  LEU17       0.0001
      7  C         -7.2350    0.1710   -1.5190 C.2    17  LEU17       0.2592
      8  O         -8.0100    0.4870   -2.4960 O.2    17  LEU17      -0.2718
      9  N         -7.3530    0.5320   -0.2260 N.am   18  ASP18      -0.1960
     10  CA        -8.3460    1.4470    0.3660 C.3    18  ASP18       0.1840
     11  CB        -9.2180    0.9140    1.4810 C.3    18  ASP18       0.1450
     12  CG       -10.2990    1.9900    1.8220 C.2    18  ASP18       0.3671
     13  OD1      -11.2830    2.1470    1.0850 O.co2  18  ASP18      -0.2456
     14  OD2      -10.1960    2.7130    2.8240 O.co2  18  ASP18      -0.2456
     15  C         -7.8310    2.7860    0.6880 C.2    18  ASP18       0.2622
     16  O         -8.4890    3.8060    0.4240 O.2    18  ASP18      -0.2715
     17  N         -6.7010    2.9100    1.4090 N.am   19  ILE19      -0.1963
     18  CA        -6.2450    4.1960    2.0090 C.3    19  ILE19       0.1727
     19  CB        -5.1500    3.9810    3.1070 C.3    19  ILE19       0.0290
     20  CG2       -4.8530    5.2880    3.9490 C.3    19  ILE19       0.0023
     21  CG1       -5.3540    2.7650    4.0520 C.3    19  ILE19       0.0022
     22  CD1       -6.7440    2.6910    4.7780 C.3    19  ILE19       0.0001
     23  C         -5.7120    5.0450    0.8620 C.2    19  ILE19       0.2616
     24  O         -6.2150    6.1830    0.7060 O.2    19  ILE19      -0.2715
     25  N         -4.8280    4.5440    0.0700 N.am   20  ILE20      -0.1963
     26  CA        -4.3100    5.2660   -1.0930 C.3    20  ILE20       0.1727
     27  CB        -2.8150    5.5810   -0.8870 C.3    20  ILE20       0.0290
     28  CG2       -2.5270    6.1070    0.5620 C.3    20  ILE20       0.0023
     29  CG1       -1.9460    4.3700   -1.2540 C.3    20  ILE20       0.0022
     30  CD1       -0.4660    4.7680   -1.0890 C.3    20  ILE20       0.0001
     31  C         -4.6280    4.5880   -2.4050 C.2    20  ILE20       0.2617
     32  O         -4.6580    3.3760   -2.5120 O.2    20  ILE20      -0.2715
     33  N         -4.8020    5.3980   -3.4870 N.am   21  TRP21      -0.1941
     34  CA        -5.0960    5.0300   -4.8910 C.3    21  TRP21       0.1982
     35  CB        -6.5670    5.2890   -5.1920 C.3    21  TRP21       0.0394
     36  CG        -7.6370    4.5460   -4.4460 C.3    21  TRP21       0.0475
     37  CD1       -7.9760    4.8320   -3.1780 C.3    21  TRP21       0.1166
     38  NE1       -8.9670    3.9650   -2.8200 N.pl3  21  TRP21      -0.2376
     39  CE2       -9.3160    3.0730   -3.8500 C.ar   21  TRP21       0.0614
     40  CZ2      -10.2780    1.9910   -3.9100 C.ar   21  TRP21       0.0158
     41  CH2      -10.3530    1.2810   -5.1340 C.ar   21  TRP21       0.0013
     42  CZ3       -9.5340    1.6440   -6.1950 C.ar   21  TRP21      -0.0002
     43  CE3       -8.6260    2.7510   -6.1090 C.ar   21  TRP21      -0.0030
     44  CD2       -8.4790    3.4760   -4.8900 C.ar   21  TRP21      -0.0059
     45  C         -4.1980    5.7570   -5.7980 C.2    21  TRP21       0.3842
     46  O         -3.8460    5.1650   -6.8230 O.co2  21  TRP21      -0.2437
     47  OXT       -3.8410    6.8940   -5.4590 O.co2  21  TRP21      -0.2437
@<TRIPOS>BOND
     1    40    41   ar
     2    40    39   ar
     3    41    42   ar
     4    39    38    1
     5    39    44   ar
     6    42    43   ar
     7    38    37    1
     8    43    44   ar
     9    44    36    1
    10    37    36    1
    11    36    35    1
    12    47    45   ar
    13     5     4    1
    14    35    34    1
    15    45    34    1
    16    45    46   ar
    17    34    33    1
    18     8     7    2
    19     4     6    1
    20     4     3    1
    21     2     3    1
    22     2     1    1
    23     2     7    1
    24     7     9   am
    25    33    31   am
    26    32    31    2
    27    31    26    1
    28     9    10    1
    29    10    11    1
    30    10    15    1
    31    26    27    1
    32    26    25    1
    33    11    12    1
    34    13    12   ar
    35    27    29    1
    36    27    28    1
    37    29    30    1
    38    16    15    2
    39    15    17   am
    40    12    14   ar
    41    25    23   am
    42    17    18    1
    43    23    24    2
    44    23    18    1
    45    18    19    1
    46    19    21    1
    47    19    20    1
    48    21    22    1
