@<TRIPOS>MOLECULE
../ET1/ET1_17-21_50CONFORMERS_NOBACKBONE.pdb
 26 23 0 0 0
SMALL
GASTEIGER

@<TRIPOS>ATOM
      1  CB        -6.1850   -2.0250    0.0230 C.3    17  LEU17       0.0000
      2  CG        -7.2330   -3.1450    0.0240 C.3    17  LEU17       0.0000
      3  CD1       -7.0910   -4.1030   -1.1650 C.3    17  LEU17       0.0000
      4  CD2       -7.3150   -3.8840    1.2940 C.3    17  LEU17       0.0000
      5  CB        -9.2520    0.9570    1.6500 C.3    18  ASP18       0.1258
      6  CG       -10.7110    1.3620    2.1070 C.2    18  ASP18       0.3654
      7  OD1      -11.5770    1.6570    1.2290 O.co2  18  ASP18      -0.2456
      8  OD2      -10.8500    1.6470    3.3270 O.co2  18  ASP18      -0.2456
      9  CB        -5.8410    4.7000    2.5850 C.3    19  ILE19       0.0000
     10  CG2       -5.3230    6.1240    2.9590 C.3    19  ILE19       0.0000
     11  CG1       -6.3830    4.1050    3.9430 C.3    19  ILE19       0.0000
     12  CD1       -7.6300    4.7940    4.6160 C.3    19  ILE19       0.0000
     13  CB        -2.8500    5.7740   -1.3170 C.3    20  ILE20       0.0000
     14  CG2       -2.5200    6.4670   -0.0010 C.3    20  ILE20       0.0000
     15  CG1       -2.1620    4.4070   -1.5700 C.3    20  ILE20       0.0000
     16  CD1       -0.6680    4.4570   -1.4100 C.3    20  ILE20       0.0000
     17  CB        -6.4800    5.9390   -5.5290 C.3    21  TRP21       0.0066
     18  CG        -7.5080    5.3450   -4.6240 C.3    21  TRP21       0.0452
     19  CD1       -7.8630    5.8950   -3.4140 C.3    21  TRP21       0.1165
     20  NE1       -8.6910    5.0220   -2.6780 N.pl3  21  TRP21      -0.2376
     21  CE2       -9.0720    3.9970   -3.5170 C.ar   21  TRP21       0.0614
     22  CZ2       -9.7960    2.8120   -3.3260 C.ar   21  TRP21       0.0158
     23  CH2       -9.8130    1.7890   -4.2710 C.ar   21  TRP21       0.0013
     24  CZ3       -9.2530    1.9610   -5.5170 C.ar   21  TRP21      -0.0002
     25  CE3       -8.3960    3.0060   -5.6370 C.ar   21  TRP21      -0.0030
     26  CD2       -8.3060    4.1210   -4.7250 C.ar   21  TRP21      -0.0059
@<TRIPOS>BOND
     1    22    23   ar
     2    22    21   ar
     3    23    24   ar
     4    21    20    1
     5    21    26   ar
     6    24    25   ar
     7    20    19    1
     8    25    26   ar
     9    26    18    1
    10    19    18    1
    11    18    17    1
    12     3     2    1
    13     2     4    1
    14     2     1    1
    15     5     6    1
    16     7     6   ar
    17    13    15    1
    18    13    14    1
    19    15    16    1
    20     6     8   ar
    21     9    11    1
    22     9    10    1
    23    11    12    1
@<TRIPOS>MOLECULE
156690
 38 41 0 0 0
SMALL
GASTEIGER

@<TRIPOS>ATOM
      1 S          -7.4921    1.3992   -7.0449 S.O2    1  LIG11       0.0741
      2 O          -6.6453   -2.2247   -2.6118 O.2     1  LIG11      -0.2756
      3 O          -6.6420    0.3744   -6.4901 O.2     1  LIG11      -0.1499
      4 O          -8.4209    1.1125   -8.1225 O.2     1  LIG11      -0.1499
      5 O         -11.1731   -4.3060   -7.5553 O.2     1  LIG11      -0.4436
      6 O          -3.3377    3.1463   -6.4088 O.2     1  LIG11      -0.3578
      7 N          -8.8350   -1.8509   -2.0631 N.am    1  LIG11      -0.3002
      8 N          -6.5373    2.6251   -7.7225 N.pl3   1  LIG11      -0.1965
      9 N         -10.8763   -5.0759   -5.4529 N.ar    1  LIG11      -0.2175
     10 N          -4.7139    3.2229   -6.3204 N.ar    1  LIG11      -0.0614
     11 C          -6.9070   -3.4164    0.3736 C.3     1  LIG11      -0.0295
     12 C          -7.5342   -3.7303   -1.0083 C.3     1  LIG11       0.0290
     13 C          -6.8485   -4.7302    1.1785 C.3     1  LIG11      -0.0596
     14 C          -5.4711   -2.8823    0.2198 C.3     1  LIG11      -0.0596
     15 C          -7.7344   -2.3960    1.1691 C.3     1  LIG11      -0.0596
     16 C          -7.6430   -2.5443   -1.9567 C.2     1  LIG11       0.2161
     17 C          -8.8879   -0.7200   -3.0082 C.3     1  LIG11       0.0400
     18 C          -9.5346   -1.0083   -4.3604 C.ar    1  LIG11      -0.0216
     19 C          -9.7870    0.0396   -5.2877 C.ar    1  LIG11      -0.0113
     20 C          -9.4223    1.4535   -5.0321 C.ar    1  LIG11       0.0090
     21 C         -10.0680   -2.1321   -1.3313 C.3     1  LIG11       0.0035
     22 C          -9.8740   -2.3316   -4.7260 C.ar    1  LIG11      -0.0442
     23 C          -8.4102    2.1660   -5.7224 C.ar    1  LIG11       0.1162
     24 C         -10.4481   -0.2797   -6.4893 C.ar    1  LIG11      -0.0529
     25 C         -10.4924   -2.6403   -5.9460 C.ar    1  LIG11       0.0372
     26 C         -10.7809   -1.5956   -6.8218 C.ar    1  LIG11      -0.0489
     27 C         -10.1382    2.1515   -4.0354 C.ar    1  LIG11      -0.0521
     28 C          -8.1114    3.4950   -5.3755 C.ar    1  LIG11      -0.0345
     29 C          -9.8304    3.4689   -3.6917 C.ar    1  LIG11      -0.0611
     30 C         -10.8360   -4.0257   -6.2542 C.ar    1  LIG11       0.2271
     31 C          -8.8112    4.1378   -4.3563 C.ar    1  LIG11      -0.0599
     32 C          -5.1798    2.6428   -7.4277 C.ar    1  LIG11       0.1837
     33 C          -4.1320    2.1881   -8.2682 C.ar    1  LIG11       0.0342
     34 C          -2.9934    2.5339   -7.5717 C.ar    1  LIG11       0.1390
     35 C          -4.2104    1.4782   -9.5634 C.3     1  LIG11      -0.0330
     36 C         -11.4327   -5.6421   -7.5528 C.ar    1  LIG11       0.1125
     37 C         -11.2584   -6.1055   -6.2746 C.ar    1  LIG11       0.0663
     38 C          -1.5485    2.3725   -7.8242 C.3     1  LIG11      -0.0034
@<TRIPOS>BOND
     1     1     3    2
     2     1     4    2
     3     1     8    1
     4     1    23    1
     5     2    16    2
     6     5    30   ar
     7     5    36   ar
     8     6    10   ar
     9     6    34   ar
    10     7    16   am
    11     7    17    1
    12     7    21    1
    13     8    32    1
    14     9    30   ar
    15     9    37   ar
    16    10    32   ar
    17    11    12    1
    18    11    13    1
    19    11    14    1
    20    11    15    1
    21    12    16    1
    22    17    18    1
    23    18    19   ar
    24    18    22   ar
    25    19    20    1
    26    19    24   ar
    27    20    23   ar
    28    20    27   ar
    29    22    25   ar
    30    23    28   ar
    31    24    26   ar
    32    25    26   ar
    33    25    30    1
    34    27    29   ar
    35    28    31   ar
    36    29    31   ar
    37    32    33   ar
    38    33    34   ar
    39    33    35    1
    40    34    38    1
    41    36    37   ar
@<TRIPOS>MOLECULE
../ET1/ET1_17-21_50CONFORMERS.pdb
 47 48 0 0 0
SMALL
GASTEIGER

@<TRIPOS>ATOM
      1  N         -5.1220   -0.1670   -1.1960 N.3    17  LEU17      -0.1231
      2  CA        -6.2500   -1.0200   -1.1700 C.3    17  LEU17       0.1693
      3  CB        -6.1850   -2.0250    0.0230 C.3    17  LEU17       0.0284
      4  CG        -7.2330   -3.1450    0.0240 C.3    17  LEU17       0.0019
      5  CD1       -7.0910   -4.1030   -1.1650 C.3    17  LEU17       0.0001
      6  CD2       -7.3150   -3.8840    1.2940 C.3    17  LEU17       0.0001
      7  C         -7.5770   -0.2120   -1.0750 C.2    17  LEU17       0.2592
      8  O         -8.4900   -0.4890   -1.8500 O.2    17  LEU17      -0.2718
      9  N         -7.6750    0.6750   -0.1440 N.am   18  ASP18      -0.1960
     10  CA        -8.7690    1.4940    0.3030 C.3    18  ASP18       0.1840
     11  CB        -9.2520    0.9570    1.6500 C.3    18  ASP18       0.1450
     12  CG       -10.7110    1.3620    2.1070 C.2    18  ASP18       0.3671
     13  OD1      -11.5770    1.6570    1.2290 O.co2  18  ASP18      -0.2456
     14  OD2      -10.8500    1.6470    3.3270 O.co2  18  ASP18      -0.2456
     15  C         -8.4200    2.9610    0.4830 C.2    18  ASP18       0.2622
     16  O         -9.1400    3.8210    0.0050 O.2    18  ASP18      -0.2715
     17  N         -7.3560    3.3090    1.1820 N.am   19  ILE19      -0.1963
     18  CA        -6.8520    4.7000    1.4380 C.3    19  ILE19       0.1727
     19  CB        -5.8410    4.7000    2.5850 C.3    19  ILE19       0.0290
     20  CG2       -5.3230    6.1240    2.9590 C.3    19  ILE19       0.0023
     21  CG1       -6.3830    4.1050    3.9430 C.3    19  ILE19       0.0022
     22  CD1       -7.6300    4.7940    4.6160 C.3    19  ILE19       0.0001
     23  C         -6.2690    5.4260    0.2030 C.2    19  ILE19       0.2616
     24  O         -6.7830    6.4780   -0.1650 O.2    19  ILE19      -0.2715
     25  N         -5.0370    5.0080   -0.3080 N.am   20  ILE20      -0.1963
     26  CA        -4.3660    5.6630   -1.4700 C.3    20  ILE20       0.1727
     27  CB        -2.8500    5.7740   -1.3170 C.3    20  ILE20       0.0290
     28  CG2       -2.5200    6.4670   -0.0010 C.3    20  ILE20       0.0023
     29  CG1       -2.1620    4.4070   -1.5700 C.3    20  ILE20       0.0022
     30  CD1       -0.6680    4.4570   -1.4100 C.3    20  ILE20       0.0001
     31  C         -4.7850    4.9740   -2.7670 C.2    20  ILE20       0.2617
     32  O         -5.1110    3.7960   -2.7510 O.2    20  ILE20      -0.2715
     33  N         -4.7000    5.7720   -3.8140 N.am   21  TRP21      -0.1941
     34  CA        -5.0330    5.4840   -5.1810 C.3    21  TRP21       0.1982
     35  CB        -6.4800    5.9390   -5.5290 C.3    21  TRP21       0.0394
     36  CG        -7.5080    5.3450   -4.6240 C.3    21  TRP21       0.0475
     37  CD1       -7.8630    5.8950   -3.4140 C.3    21  TRP21       0.1166
     38  NE1       -8.6910    5.0220   -2.6780 N.pl3  21  TRP21      -0.2376
     39  CE2       -9.0720    3.9970   -3.5170 C.ar   21  TRP21       0.0614
     40  CZ2       -9.7960    2.8120   -3.3260 C.ar   21  TRP21       0.0158
     41  CH2       -9.8130    1.7890   -4.2710 C.ar   21  TRP21       0.0013
     42  CZ3       -9.2530    1.9610   -5.5170 C.ar   21  TRP21      -0.0002
     43  CE3       -8.3960    3.0060   -5.6370 C.ar   21  TRP21      -0.0030
     44  CD2       -8.3060    4.1210   -4.7250 C.ar   21  TRP21      -0.0059
     45  C         -3.9700    6.2220   -6.0900 C.2    21  TRP21       0.3842
     46  O         -3.4270    7.2250   -5.6040 O.co2  21  TRP21      -0.2437
     47  OXT       -3.7560    5.7930   -7.2710 O.co2  21  TRP21      -0.2437
@<TRIPOS>BOND
     1    40    41   ar
     2    40    39   ar
     3    41    42   ar
     4    39    38    1
     5    39    44   ar
     6    42    43   ar
     7    38    37    1
     8    43    44   ar
     9    44    36    1
    10    37    36    1
    11    36    35    1
    12    47    45   ar
    13     5     4    1
    14    35    34    1
    15    45    34    1
    16    45    46   ar
    17    34    33    1
    18     8     7    2
    19     4     6    1
    20     4     3    1
    21     2     3    1
    22     2     1    1
    23     2     7    1
    24     7     9   am
    25    33    31   am
    26    32    31    2
    27    31    26    1
    28     9    10    1
    29    10    11    1
    30    10    15    1
    31    26    27    1
    32    26    25    1
    33    11    12    1
    34    13    12   ar
    35    27    29    1
    36    27    28    1
    37    29    30    1
    38    16    15    2
    39    15    17   am
    40    12    14   ar
    41    25    23   am
    42    17    18    1
    43    23    24    2
    44    23    18    1
    45    18    19    1
    46    19    21    1
    47    19    20    1
    48    21    22    1
