@<TRIPOS>MOLECULE
../ET1/ET1_17-21_50CONFORMERS_NOBACKBONE.pdb
 26 23 0 0 0
SMALL
GASTEIGER

@<TRIPOS>ATOM
      1  CB        -5.8230   -1.3000   -0.0200 C.3    17  LEU17       0.0000
      2  CG        -7.1210   -2.0520    0.2730 C.3    17  LEU17       0.0000
      3  CD1       -7.3450   -3.3240   -0.5260 C.3    17  LEU17       0.0000
      4  CD2       -7.1050   -2.4320    1.7560 C.3    17  LEU17       0.0000
      5  CB        -9.8100    1.4940   -0.6650 C.3    18  ASP18       0.1258
      6  CG       -10.9800    2.4410   -1.1080 C.2    18  ASP18       0.3654
      7  OD1      -11.1620    2.6260   -2.3450 O.co2  18  ASP18      -0.2456
      8  OD2      -11.6890    3.0500   -0.2610 O.co2  18  ASP18      -0.2456
      9  CB        -6.3810    4.5930    2.3780 C.3    19  ILE19       0.0000
     10  CG2       -5.1090    3.7040    2.3320 C.3    19  ILE19       0.0000
     11  CG1       -5.9960    5.9430    3.0860 C.3    19  ILE19       0.0000
     12  CD1       -5.9900    5.6400    4.6020 C.3    19  ILE19       0.0000
     13  CB        -3.0010    5.5600   -0.9960 C.3    20  ILE20       0.0000
     14  CG2       -3.0220    6.7560   -0.0120 C.3    20  ILE20       0.0000
     15  CG1       -2.3580    4.3220   -0.4780 C.3    20  ILE20       0.0000
     16  CD1       -0.8540    4.5810   -0.0790 C.3    20  ILE20       0.0000
     17  CB        -6.4600    3.3010   -5.4360 C.3    21  TRP21       0.0066
     18  CG        -6.1540    2.0960   -6.3470 C.3    21  TRP21       0.0452
     19  CD1       -6.5110    2.0410   -7.7090 C.3    21  TRP21       0.1165
     20  NE1       -6.2560    0.7800   -8.2410 N.pl3  21  TRP21      -0.2376
     21  CE2       -5.8060   -0.0630   -7.2480 C.ar   21  TRP21       0.0614
     22  CZ2       -5.4890   -1.4340   -7.1970 C.ar   21  TRP21       0.0158
     23  CH2       -4.8030   -2.0280   -6.1140 C.ar   21  TRP21       0.0013
     24  CZ3       -4.5240   -1.2220   -5.0000 C.ar   21  TRP21      -0.0002
     25  CE3       -4.9630    0.1690   -4.9520 C.ar   21  TRP21      -0.0030
     26  CD2       -5.6260    0.7530   -6.0730 C.ar   21  TRP21      -0.0059
@<TRIPOS>BOND
     1    22    23   ar
     2    22    21   ar
     3    23    24   ar
     4    21    20    1
     5    21    26   ar
     6    24    25   ar
     7    20    19    1
     8    25    26   ar
     9    26    18    1
    10    19    18    1
    11    18    17    1
    12     3     2    1
    13     2     4    1
    14     2     1    1
    15     5     6    1
    16     7     6   ar
    17    13    15    1
    18    13    14    1
    19    15    16    1
    20     6     8   ar
    21     9    11    1
    22     9    10    1
    23    11    12    1
@<TRIPOS>MOLECULE
16004692
 32 34 0 0 0
SMALL
GASTEIGER

@<TRIPOS>ATOM
      1 BR         -4.4152   -2.2013   -8.6033 Br      1  LIG11      -0.0503
      2 BR        -10.2350   -0.7211   -6.2628 Br      1  LIG11      -0.0472
      3 S          -3.1844    3.1171   -3.9119 S.O2    1  LIG11       0.1104
      4 O          -6.0755   -1.4828   -2.0568 O.3     1  LIG11      -0.4724
      5 O          -2.4490    2.1832   -3.1043 O.2     1  LIG11      -0.1381
      6 O          -2.9716    3.2354   -5.3362 O.2     1  LIG11      -0.1381
      7 O          -8.5092   -1.0252   -0.5809 O.3     1  LIG11      -0.4590
      8 N          -2.9790    4.6701   -3.3180 N.3     1  LIG11      -0.1771
      9 N          -4.8198    2.9348   -3.7184 N.pl3   1  LIG11      -0.1889
     10 N          -5.4800    2.5240   -1.6164 N.ar    1  LIG11      -0.2186
     11 N          -5.9564    0.4042   -0.7186 N.ar    1  LIG11      -0.2008
     12 N          -8.9868   -2.1491   -2.5932 N.ar    1  LIG11      -0.2022
     13 N          -9.3636    0.1942   -2.3254 N.ar    1  LIG11      -0.2022
     14 C          -3.4688    5.0527   -1.9838 C.3     1  LIG11       0.0185
     15 C          -5.3864    0.5717   -3.0922 C.ar    1  LIG11       0.0848
     16 C          -5.2503    1.9364   -2.8081 C.ar    1  LIG11       0.1532
     17 C          -2.7726    4.3446   -0.8288 C.3     1  LIG11      -0.0416
     18 C          -5.1529   -0.0780   -4.4242 C.ar    1  LIG11      -0.0094
     19 C          -5.7713   -0.1355   -1.9442 C.ar    1  LIG11       0.2276
     20 C          -1.2889    4.6665   -0.7466 C.3     1  LIG11      -0.0641
     21 C          -5.4260    0.5567   -5.6520 C.ar    1  LIG11      -0.0527
     22 C          -4.6473   -1.3949   -4.5274 C.ar    1  LIG11      -0.0527
     23 C          -6.2743   -2.1595   -0.8096 C.3     1  LIG11       0.1252
     24 C          -5.1754   -0.0543   -6.8906 C.ar    1  LIG11      -0.0472
     25 C          -4.4502   -2.0386   -5.7588 C.ar    1  LIG11      -0.0472
     26 C          -5.8160    1.7179   -0.6192 C.ar    1  LIG11       0.1219
     27 C          -7.7218   -2.1761   -0.2804 C.3     1  LIG11       0.1267
     28 C          -4.7025   -1.3562   -6.9378 C.ar    1  LIG11       0.0179
     29 C          -8.9838   -1.0118   -1.8736 C.ar    1  LIG11       0.3180
     30 C          -9.3622   -2.0342   -3.8833 C.ar    1  LIG11       0.0483
     31 C          -9.7404    0.2468   -3.6199 C.ar    1  LIG11       0.0483
     32 C          -9.7459   -0.8454   -4.4560 C.ar    1  LIG11       0.0543
@<TRIPOS>BOND
     1     1    28    1
     2     2    32    1
     3     3     5    2
     4     3     6    2
     5     3     8    1
     6     3     9    1
     7     4    19    1
     8     4    23    1
     9     7    27    1
    10     7    29    1
    11     8    14    1
    12     9    16    1
    13    10    16   ar
    14    10    26   ar
    15    11    19   ar
    16    11    26   ar
    17    12    29   ar
    18    12    30   ar
    19    13    29   ar
    20    13    31   ar
    21    14    17    1
    22    15    16   ar
    23    15    18    1
    24    15    19   ar
    25    17    20    1
    26    18    21   ar
    27    18    22   ar
    28    21    24   ar
    29    22    25   ar
    30    23    27    1
    31    24    28   ar
    32    25    28   ar
    33    30    32   ar
    34    31    32   ar
@<TRIPOS>MOLECULE
../ET1/ET1_17-21_50CONFORMERS.pdb
 47 48 0 0 0
SMALL
GASTEIGER

@<TRIPOS>ATOM
      1  N         -4.4720    0.1410   -1.4080 N.3    17  LEU17      -0.1231
      2  CA        -5.6790   -0.6380   -1.3690 C.3    17  LEU17       0.1693
      3  CB        -5.8230   -1.3000   -0.0200 C.3    17  LEU17       0.0284
      4  CG        -7.1210   -2.0520    0.2730 C.3    17  LEU17       0.0019
      5  CD1       -7.3450   -3.3240   -0.5260 C.3    17  LEU17       0.0001
      6  CD2       -7.1050   -2.4320    1.7560 C.3    17  LEU17       0.0001
      7  C         -6.8980    0.2070   -1.7660 C.2    17  LEU17       0.2592
      8  O         -7.5610   -0.0070   -2.7650 O.2    17  LEU17      -0.2718
      9  N         -7.3770    1.1650   -0.9800 N.am   18  ASP18      -0.1960
     10  CA        -8.4900    2.0500   -1.2600 C.3    18  ASP18       0.1840
     11  CB        -9.8100    1.4940   -0.6650 C.3    18  ASP18       0.1450
     12  CG       -10.9800    2.4410   -1.1080 C.2    18  ASP18       0.3671
     13  OD1      -11.1620    2.6260   -2.3450 O.co2  18  ASP18      -0.2456
     14  OD2      -11.6890    3.0500   -0.2610 O.co2  18  ASP18      -0.2456
     15  C         -8.1570    3.4170   -0.7330 C.2    18  ASP18       0.2622
     16  O         -8.3600    4.4270   -1.4500 O.2    18  ASP18      -0.2715
     17  N         -7.5900    3.5370    0.4990 N.am   19  ILE19      -0.1963
     18  CA        -7.2060    4.8060    1.0980 C.3    19  ILE19       0.1727
     19  CB        -6.3810    4.5930    2.3780 C.3    19  ILE19       0.0290
     20  CG2       -5.1090    3.7040    2.3320 C.3    19  ILE19       0.0023
     21  CG1       -5.9960    5.9430    3.0860 C.3    19  ILE19       0.0022
     22  CD1       -5.9900    5.6400    4.6020 C.3    19  ILE19       0.0001
     23  C         -6.3560    5.5680    0.0420 C.2    19  ILE19       0.2616
     24  O         -6.4380    6.7870   -0.0320 O.2    19  ILE19      -0.2715
     25  N         -5.4290    4.8700   -0.5810 N.am   20  ILE20      -0.1963
     26  CA        -4.4440    5.3370   -1.5350 C.3    20  ILE20       0.1727
     27  CB        -3.0010    5.5600   -0.9960 C.3    20  ILE20       0.0290
     28  CG2       -3.0220    6.7560   -0.0120 C.3    20  ILE20       0.0023
     29  CG1       -2.3580    4.3220   -0.4780 C.3    20  ILE20       0.0022
     30  CD1       -0.8540    4.5810   -0.0790 C.3    20  ILE20       0.0001
     31  C         -4.5130    4.3060   -2.7300 C.2    20  ILE20       0.2617
     32  O         -4.1930    3.1280   -2.6370 O.2    20  ILE20      -0.2715
     33  N         -4.9570    4.7520   -3.9100 N.am   21  TRP21      -0.1941
     34  CA        -5.0770    3.9470   -5.1760 C.3    21  TRP21       0.1982
     35  CB        -6.4600    3.3010   -5.4360 C.3    21  TRP21       0.0394
     36  CG        -6.1540    2.0960   -6.3470 C.3    21  TRP21       0.0475
     37  CD1       -6.5110    2.0410   -7.7090 C.3    21  TRP21       0.1166
     38  NE1       -6.2560    0.7800   -8.2410 N.pl3  21  TRP21      -0.2376
     39  CE2       -5.8060   -0.0630   -7.2480 C.ar   21  TRP21       0.0614
     40  CZ2       -5.4890   -1.4340   -7.1970 C.ar   21  TRP21       0.0158
     41  CH2       -4.8030   -2.0280   -6.1140 C.ar   21  TRP21       0.0013
     42  CZ3       -4.5240   -1.2220   -5.0000 C.ar   21  TRP21      -0.0002
     43  CE3       -4.9630    0.1690   -4.9520 C.ar   21  TRP21      -0.0030
     44  CD2       -5.6260    0.7530   -6.0730 C.ar   21  TRP21      -0.0059
     45  C         -4.6800    4.8700   -6.3890 C.2    21  TRP21       0.3842
     46  O         -5.3780    5.8440   -6.6380 O.co2  21  TRP21      -0.2437
     47  OXT       -3.6890    4.5570   -7.0760 O.co2  21  TRP21      -0.2437
@<TRIPOS>BOND
     1    40    41   ar
     2    40    39   ar
     3    41    42   ar
     4    39    38    1
     5    39    44   ar
     6    42    43   ar
     7    38    37    1
     8    43    44   ar
     9    44    36    1
    10    37    36    1
    11    36    35    1
    12    47    45   ar
    13     5     4    1
    14    35    34    1
    15    45    34    1
    16    45    46   ar
    17    34    33    1
    18     8     7    2
    19     4     6    1
    20     4     3    1
    21     2     3    1
    22     2     1    1
    23     2     7    1
    24     7     9   am
    25    33    31   am
    26    32    31    2
    27    31    26    1
    28     9    10    1
    29    10    11    1
    30    10    15    1
    31    26    27    1
    32    26    25    1
    33    11    12    1
    34    13    12   ar
    35    27    29    1
    36    27    28    1
    37    29    30    1
    38    16    15    2
    39    15    17   am
    40    12    14   ar
    41    25    23   am
    42    17    18    1
    43    23    24    2
    44    23    18    1
    45    18    19    1
    46    19    21    1
    47    19    20    1
    48    21    22    1
