@<TRIPOS>MOLECULE
../ET1/ET1_17-21_50CONFORMERS_NOBACKBONE.pdb
 26 23 0 0 0
SMALL
GASTEIGER

@<TRIPOS>ATOM
      1  CB        -6.0450   -2.2240   -1.9800 C.3    17  LEU17       0.0000
      2  CG        -7.2790   -3.0720   -2.2900 C.3    17  LEU17       0.0000
      3  CD1       -7.6320   -2.9190   -3.7420 C.3    17  LEU17       0.0000
      4  CD2       -6.9950   -4.5210   -1.9860 C.3    17  LEU17       0.0000
      5  CB        -8.9650    0.3820    1.2000 C.3    18  ASP18       0.1258
      6  CG       -10.2610    1.0350    1.7020 C.2    18  ASP18       0.3654
      7  OD1      -10.4730    1.2090    2.9030 O.co2  18  ASP18      -0.2456
      8  OD2      -11.1470    1.2530    0.8550 O.co2  18  ASP18      -0.2456
      9  CB        -5.0970    3.3260    3.3970 C.3    19  ILE19       0.0000
     10  CG2       -4.7090    4.5060    4.3340 C.3    19  ILE19       0.0000
     11  CG1       -5.3530    1.9900    4.2150 C.3    19  ILE19       0.0000
     12  CD1       -6.7200    1.9780    4.9740 C.3    19  ILE19       0.0000
     13  CB        -2.7260    5.5100   -0.0200 C.3    20  ILE20       0.0000
     14  CG2       -2.5240    6.0620    1.4180 C.3    20  ILE20       0.0000
     15  CG1       -1.9180    4.2010   -0.0440 C.3    20  ILE20       0.0000
     16  CD1       -0.4640    4.2590    0.0730 C.3    20  ILE20       0.0000
     17  CB        -5.9960    6.4580   -4.2760 C.3    21  TRP21       0.0066
     18  CG        -7.1020    5.6850   -3.5800 C.3    21  TRP21       0.0452
     19  CD1       -7.5860    5.8870   -2.2840 C.3    21  TRP21       0.1165
     20  NE1       -8.5970    4.9670   -2.1300 N.pl3  21  TRP21      -0.2376
     21  CE2       -8.8270    4.1960   -3.2250 C.ar   21  TRP21       0.0614
     22  CZ2       -9.7120    3.1020   -3.3810 C.ar   21  TRP21       0.0158
     23  CH2       -9.6000    2.3640   -4.5630 C.ar   21  TRP21       0.0013
     24  CZ3       -8.7130    2.8140   -5.5460 C.ar   21  TRP21      -0.0002
     25  CE3       -7.8160    3.8360   -5.3890 C.ar   21  TRP21      -0.0030
     26  CD2       -7.8100    4.5550   -4.1150 C.ar   21  TRP21      -0.0059
@<TRIPOS>BOND
     1    22    23   ar
     2    22    21   ar
     3    23    24   ar
     4    21    20    1
     5    21    26   ar
     6    24    25   ar
     7    20    19    1
     8    25    26   ar
     9    26    18    1
    10    19    18    1
    11    18    17    1
    12     3     2    1
    13     2     4    1
    14     2     1    1
    15     5     6    1
    16     7     6   ar
    17    13    15    1
    18    13    14    1
    19    15    16    1
    20     6     8   ar
    21     9    11    1
    22     9    10    1
    23    11    12    1
@<TRIPOS>MOLECULE
104865
 39 42 0 0 0
SMALL
GASTEIGER

@<TRIPOS>ATOM
      1 S          -3.7876    4.0638   -6.0518 S.O2    1  LIG11       0.0736
      2 O          -2.8104    4.5333   -7.0120 O.2     1  LIG11      -0.1499
      3 O          -5.1450    4.5585   -6.0748 O.2     1  LIG11      -0.1499
      4 O          -6.5956    2.0435   -5.7074 O.3     1  LIG11      -0.4435
      5 O          -7.2683    0.3356   -3.5054 O.3     1  LIG11      -0.4715
      6 O          -9.0865    1.3905   -7.1165 O.3     1  LIG11      -0.4914
      7 O          -8.0591   -2.3666   -4.3421 O.3     1  LIG11      -0.3917
      8 N          -3.8034    2.3830   -6.1736 N.pl3   1  LIG11      -0.1963
      9 N          -3.3548    1.1689   -4.3218 N.ar    1  LIG11      -0.2044
     10 N          -5.0130    0.2082   -2.9227 N.ar    1  LIG11      -0.1866
     11 N          -3.0157   -0.3115   -1.0264 N.ar    1  LIG11      -0.2331
     12 N          -1.3944   -0.0765   -2.7658 N.ar    1  LIG11      -0.2331
     13 C          -1.5251    4.8903   -0.4150 C.3     1  LIG11      -0.0127
     14 C          -2.1078    4.7309   -1.8304 C.ar    1  LIG11      -0.0419
     15 C          -0.5632    6.0958   -0.3945 C.3     1  LIG11      -0.0560
     16 C          -0.7546    3.6125   -0.0147 C.3     1  LIG11      -0.0560
     17 C          -2.5939    5.1303    0.6760 C.3     1  LIG11      -0.0560
     18 C          -1.2621    4.3998   -2.9108 C.ar    1  LIG11      -0.0562
     19 C          -3.4737    4.9165   -2.1057 C.ar    1  LIG11      -0.0562
     20 C          -3.1267    4.3690   -4.4315 C.ar    1  LIG11       0.1086
     21 C          -1.7616    4.2204   -4.2025 C.ar    1  LIG11      -0.0348
     22 C          -3.9803    4.7466   -3.3972 C.ar    1  LIG11      -0.0348
     23 C          -4.3441    1.6646   -5.0778 C.ar    1  LIG11       0.1883
     24 C          -5.6932    1.5175   -4.8260 C.ar    1  LIG11       0.2307
     25 C          -5.9622    0.6985   -3.7464 C.ar    1  LIG11       0.2642
     26 C          -3.7273    0.4828   -3.2238 C.ar    1  LIG11       0.2027
     27 C          -7.8246    2.4737   -5.2589 C.ar    1  LIG11       0.1702
     28 C          -2.6628    0.0053   -2.2958 C.ar    1  LIG11       0.1978
     29 C          -7.4582   -0.7714   -2.6164 C.3     1  LIG11       0.1143
     30 C          -8.9846    2.1338   -5.9715 C.ar    1  LIG11       0.1621
     31 C          -7.9237    3.2932   -4.1214 C.ar    1  LIG11      -0.0157
     32 C         -10.2294    2.5492   -5.4762 C.ar    1  LIG11      -0.0163
     33 C          -7.1320   -2.1066   -3.2893 C.3     1  LIG11       0.0783
     34 C          -9.1698    3.7093   -3.6494 C.ar    1  LIG11      -0.0581
     35 C         -10.3249    3.3282   -4.3219 C.ar    1  LIG11      -0.0581
     36 C          -2.0295   -0.7146   -0.2051 C.ar    1  LIG11       0.0315
     37 C          -0.4539   -0.4985   -1.9010 C.ar    1  LIG11       0.0315
     38 C          -0.7172   -0.8299   -0.5943 C.ar    1  LIG11      -0.0254
     39 C          -7.9326    1.2763   -7.9359 C.3     1  LIG11       0.0790
@<TRIPOS>BOND
     1     1     2    2
     2     1     3    2
     3     1     8    1
     4     1    20    1
     5     4    24    1
     6     4    27    1
     7     5    25    1
     8     5    29    1
     9     6    30    1
    10     6    39    1
    11     7    33    1
    12     8    23    1
    13     9    23   ar
    14     9    26   ar
    15    10    25   ar
    16    10    26   ar
    17    11    28   ar
    18    11    36   ar
    19    12    28   ar
    20    12    37   ar
    21    13    14    1
    22    13    15    1
    23    13    16    1
    24    13    17    1
    25    14    18   ar
    26    14    19   ar
    27    18    21   ar
    28    19    22   ar
    29    20    21   ar
    30    20    22   ar
    31    23    24   ar
    32    24    25   ar
    33    26    28    1
    34    27    30   ar
    35    27    31   ar
    36    29    33    1
    37    30    32   ar
    38    31    34   ar
    39    32    35   ar
    40    34    35   ar
    41    36    38   ar
    42    37    38   ar
@<TRIPOS>MOLECULE
../ET1/ET1_17-21_50CONFORMERS.pdb
 47 48 0 0 0
SMALL
GASTEIGER

@<TRIPOS>ATOM
      1  N         -4.8850   -0.0880   -1.8400 N.3    17  LEU17      -0.1231
      2  CA        -6.1290   -0.7220   -2.2700 C.3    17  LEU17       0.1693
      3  CB        -6.0450   -2.2240   -1.9800 C.3    17  LEU17       0.0284
      4  CG        -7.2790   -3.0720   -2.2900 C.3    17  LEU17       0.0019
      5  CD1       -7.6320   -2.9190   -3.7420 C.3    17  LEU17       0.0001
      6  CD2       -6.9950   -4.5210   -1.9860 C.3    17  LEU17       0.0001
      7  C         -7.3700   -0.0260   -1.7540 C.2    17  LEU17       0.2592
      8  O         -8.3970    0.0460   -2.4160 O.2    17  LEU17      -0.2718
      9  N         -7.2350    0.5080   -0.5260 N.am   18  ASP18      -0.1960
     10  CA        -8.2590    1.2890    0.1780 C.3    18  ASP18       0.1840
     11  CB        -8.9650    0.3820    1.2000 C.3    18  ASP18       0.1450
     12  CG       -10.2610    1.0350    1.7020 C.2    18  ASP18       0.3671
     13  OD1      -10.4730    1.2090    2.9030 O.co2  18  ASP18      -0.2456
     14  OD2      -11.1470    1.2530    0.8550 O.co2  18  ASP18      -0.2456
     15  C         -7.7020    2.5680    0.7980 C.2    18  ASP18       0.2622
     16  O         -8.4520    3.5520    0.7850 O.2    18  ASP18      -0.2715
     17  N         -6.5770    2.4600    1.5110 N.am   19  ILE19      -0.1963
     18  CA        -6.2160    3.6500    2.4080 C.3    19  ILE19       0.1727
     19  CB        -5.0970    3.3260    3.3970 C.3    19  ILE19       0.0290
     20  CG2       -4.7090    4.5060    4.3340 C.3    19  ILE19       0.0023
     21  CG1       -5.3530    1.9900    4.2150 C.3    19  ILE19       0.0022
     22  CD1       -6.7200    1.9780    4.9740 C.3    19  ILE19       0.0001
     23  C         -5.7170    4.8170    1.5180 C.2    19  ILE19       0.2616
     24  O         -6.0380    5.9740    1.8980 O.2    19  ILE19      -0.2715
     25  N         -4.8040    4.4900    0.5620 N.am   20  ILE20      -0.1963
     26  CA        -4.2090    5.3760   -0.3770 C.3    20  ILE20       0.1727
     27  CB        -2.7260    5.5100   -0.0200 C.3    20  ILE20       0.0290
     28  CG2       -2.5240    6.0620    1.4180 C.3    20  ILE20       0.0023
     29  CG1       -1.9180    4.2010   -0.0440 C.3    20  ILE20       0.0022
     30  CD1       -0.4640    4.2590    0.0730 C.3    20  ILE20       0.0001
     31  C         -4.3620    4.9380   -1.8210 C.2    20  ILE20       0.2617
     32  O         -4.4020    3.8000   -2.1990 O.2    20  ILE20      -0.2715
     33  N         -4.3280    5.9610   -2.6340 N.am   21  TRP21      -0.1941
     34  CA        -4.5790    6.0340   -4.0320 C.3    21  TRP21       0.1982
     35  CB        -5.9960    6.4580   -4.2760 C.3    21  TRP21       0.0394
     36  CG        -7.1020    5.6850   -3.5800 C.3    21  TRP21       0.0475
     37  CD1       -7.5860    5.8870   -2.2840 C.3    21  TRP21       0.1166
     38  NE1       -8.5970    4.9670   -2.1300 N.pl3  21  TRP21      -0.2376
     39  CE2       -8.8270    4.1960   -3.2250 C.ar   21  TRP21       0.0614
     40  CZ2       -9.7120    3.1020   -3.3810 C.ar   21  TRP21       0.0158
     41  CH2       -9.6000    2.3640   -4.5630 C.ar   21  TRP21       0.0013
     42  CZ3       -8.7130    2.8140   -5.5460 C.ar   21  TRP21      -0.0002
     43  CE3       -7.8160    3.8360   -5.3890 C.ar   21  TRP21      -0.0030
     44  CD2       -7.8100    4.5550   -4.1150 C.ar   21  TRP21      -0.0059
     45  C         -3.6280    6.9660   -4.7840 C.2    21  TRP21       0.3842
     46  O         -3.1330    6.6150   -5.9110 O.co2  21  TRP21      -0.2437
     47  OXT       -3.2290    7.9480   -4.1900 O.co2  21  TRP21      -0.2437
@<TRIPOS>BOND
     1    40    41   ar
     2    40    39   ar
     3    41    42   ar
     4    39    38    1
     5    39    44   ar
     6    42    43   ar
     7    38    37    1
     8    43    44   ar
     9    44    36    1
    10    37    36    1
    11    36    35    1
    12    47    45   ar
    13     5     4    1
    14    35    34    1
    15    45    34    1
    16    45    46   ar
    17    34    33    1
    18     8     7    2
    19     4     6    1
    20     4     3    1
    21     2     3    1
    22     2     1    1
    23     2     7    1
    24     7     9   am
    25    33    31   am
    26    32    31    2
    27    31    26    1
    28     9    10    1
    29    10    11    1
    30    10    15    1
    31    26    27    1
    32    26    25    1
    33    11    12    1
    34    13    12   ar
    35    27    29    1
    36    27    28    1
    37    29    30    1
    38    16    15    2
    39    15    17   am
    40    12    14   ar
    41    25    23   am
    42    17    18    1
    43    23    24    2
    44    23    18    1
    45    18    19    1
    46    19    21    1
    47    19    20    1
    48    21    22    1
