@<TRIPOS>MOLECULE
../ET1/ET1_17-21_50CONFORMERS_NOBACKBONE.pdb
 26 23 0 0 0
SMALL
GASTEIGER

@<TRIPOS>ATOM
      1  CB        -6.1060   -1.8910   -0.6040 C.3    17  LEU17       0.0000
      2  CG        -7.3260   -2.7700   -0.5110 C.3    17  LEU17       0.0000
      3  CD1       -7.5330   -3.5860   -1.8080 C.3    17  LEU17       0.0000
      4  CD2       -7.1750   -3.7620    0.6380 C.3    17  LEU17       0.0000
      5  CB        -9.6350    1.1900    0.6620 C.3    18  ASP18       0.1258
      6  CG       -10.7540    2.0760    1.0750 C.2    18  ASP18       0.3654
      7  OD1      -10.7090    2.5980    2.1810 O.co2  18  ASP18      -0.2456
      8  OD2      -11.7750    2.1680    0.3490 O.co2  18  ASP18      -0.2456
      9  CB        -5.6060    4.1530    3.1840 C.3    19  ILE19       0.0000
     10  CG2       -5.0710    5.4630    3.7780 C.3    19  ILE19       0.0000
     11  CG1       -6.3130    3.3110    4.2570 C.3    19  ILE19       0.0000
     12  CD1       -7.4260    3.9890    5.0080 C.3    19  ILE19       0.0000
     13  CB        -2.4570    5.3180   -0.3440 C.3    20  ILE20       0.0000
     14  CG2       -2.2540    6.0130    0.9630 C.3    20  ILE20       0.0000
     15  CG1       -1.6850    3.9000   -0.3880 C.3    20  ILE20       0.0000
     16  CD1       -0.1170    4.0540   -0.3600 C.3    20  ILE20       0.0000
     17  CB        -5.5920    5.9330   -5.0080 C.3    21  TRP21       0.0066
     18  CG        -6.7500    5.3280   -4.2680 C.3    21  TRP21       0.0452
     19  CD1       -7.2600    5.6560   -3.0690 C.3    21  TRP21       0.1165
     20  NE1       -8.2550    4.7710   -2.7510 N.pl3  21  TRP21      -0.2376
     21  CE2       -8.5230    3.9140   -3.8170 C.ar   21  TRP21       0.0614
     22  CZ2       -9.4410    2.8940   -4.0290 C.ar   21  TRP21       0.0158
     23  CH2       -9.4520    2.1750   -5.2310 C.ar   21  TRP21       0.0013
     24  CZ3       -8.7260    2.6660   -6.3270 C.ar   21  TRP21      -0.0002
     25  CE3       -7.8990    3.7620   -6.1480 C.ar   21  TRP21      -0.0030
     26  CD2       -7.6800    4.3580   -4.8730 C.ar   21  TRP21      -0.0059
@<TRIPOS>BOND
     1    22    23   ar
     2    22    21   ar
     3    23    24   ar
     4    21    20    1
     5    21    26   ar
     6    24    25   ar
     7    20    19    1
     8    25    26   ar
     9    26    18    1
    10    19    18    1
    11    18    17    1
    12     3     2    1
    13     2     4    1
    14     2     1    1
    15     5     6    1
    16     7     6   ar
    17    13    15    1
    18    13    14    1
    19    15    16    1
    20     6     8   ar
    21     9    11    1
    22     9    10    1
    23    11    12    1
@<TRIPOS>MOLECULE
123882
 66 71 0 0 0
SMALL
GASTEIGER

@<TRIPOS>ATOM
      1 S          -4.4727    0.8776   -6.2417 S.2     3  UNK33      -0.0993
      2 O          -6.7939    5.3687    5.2409 O.2     1  UNK11      -0.2755
      3 O          -9.5823   -1.8613   -1.2617 O.2     4  LEU44      -0.2738
      4 O          -5.4005    5.7293    0.6222 O.2     1  UNK11      -0.2737
      5 O          -7.9743    1.7148   -0.0093 O.2     5  TRP55      -0.2738
      6 O          -8.9230    4.5816    1.9045 O.2     6  ASP66      -0.2738
      7 O          -6.5791   -0.3959   -4.3801 O.2     3  UNK33      -0.2734
      8 O          -4.1758    0.9589   -0.7372 O.2     2  ASP22      -0.2737
      9 OD1       -11.5107    0.5929    2.7942 O.co2   6  ASP66      -0.5497
     10 OD2       -10.6912    0.4159    4.9230 O.co2   6  ASP66      -0.5497
     11 OD1        -0.9965    2.2807    0.6442 O.co2   2  ASP22      -0.5497
     12 OD2        -2.8628    2.5277    1.9450 O.co2   2  ASP22      -0.5497
     13 N          -4.8179    4.6668    6.1425 N.am    1  UNK11      -0.2984
     14 N          -3.1342    5.9127    8.1263 N.pl3   1  UNK11      -0.3269
     15 N          -7.0961    3.4423    2.7149 N.am    1  UNK11      -0.3020
     16 N          -9.0569    0.2648   -1.9125 N.am    5  TRP55      -0.3022
     17 N          -6.4309   -0.2122   -2.1232 N.am    4  LEU44      -0.3022
     18 N          -9.9183    1.9540    1.1832 N.am    6  ASP66      -0.3021
     19 N          -5.0572    3.4654    0.7581 N.am    2  ASP22      -0.3021
     20 N          -4.9448    2.2291   -2.4518 N.am    3  UNK33      -0.2984
     21 NE1        -8.8801    4.9347   -2.9635 N.ar    5  TRP55      -0.3604
     22 C          -3.3549    4.5937    6.0083 C.3     1  UNK11       0.0304
     23 C          -5.3225    4.8329    7.5062 C.3     1  UNK11       0.0304
     24 C          -2.6262    4.7482    7.3602 C.3     1  UNK11       0.0280
     25 C          -4.6210    6.0028    8.2125 C.3     1  UNK11       0.0280
     26 C          -5.6675    4.9041    5.0691 C.2     1  UNK11       0.2179
     27 C          -5.1219    4.5620    3.6922 C.3     1  UNK11       0.0510
     28 C          -6.2123    4.6051    2.6209 C.3     1  UNK11       0.1076
     29 CA         -7.2439   -1.4006   -1.8140 C.3     4  LEU44       0.0997
     30 CB         -6.6480   -2.0518   -0.5503 C.3     4  LEU44      -0.0236
     31 CA        -10.0281    0.9602   -1.0694 C.3     5  TRP55       0.1034
     32 C          -2.4587    7.1367    8.1438 C.ar    1  UNK11       0.0298
     33 CG         -7.1988   -3.4268   -0.1272 C.3     4  LEU44      -0.0446
     34 CB        -10.8311    2.0187   -1.8314 C.3     5  TRP55       0.0013
     35 C          -8.7373   -1.0440   -1.6194 C.2     4  LEU44       0.2340
     36 CA         -9.1963    2.2048    2.4278 C.3     6  ASP66       0.1045
     37 C          -5.5630    4.6645    1.2221 C.2     1  UNK11       0.2344
     38 CG        -10.0041    3.0562   -2.5382 C.ar    5  TRP55      -0.0201
     39 C          -9.1985    1.5763    0.0745 C.2     5  TRP55       0.2343
     40 C          -8.4158    3.5331    2.3043 C.2     6  ASP66       0.2343
     41 CA         -4.2244    3.4074   -0.4286 C.3     2  ASP22       0.1045
     42 CD2        -7.1619   -4.4548   -1.2560 C.3     4  LEU44      -0.0626
     43 CD1        -6.3991   -3.9463    1.0735 C.3     4  LEU44      -0.0626
     44 C          -4.8864    1.1739   -3.4622 C.3     3  UNK33       0.1311
     45 C          -2.8773    8.1684    9.0075 C.ar    1  UNK11      -0.0407
     46 C          -1.3411    7.4148    7.3440 C.ar    1  UNK11      -0.0407
     47 CD2        -9.4368    2.9687   -3.8511 C.ar    5  TRP55       0.0029
     48 C          -6.0859    0.1711   -3.4058 C.2     3  UNK33       0.2390
     49 CB        -10.1301    2.3051    3.6282 C.3     6  ASP66       0.0138
     50 CD1        -9.6352    4.2845   -2.0273 C.ar    5  TRP55       0.0060
     51 CE2        -8.7514    4.1603   -4.0933 C.ar    5  TRP55       0.0467
     52 C          -4.4198    2.0753   -1.1846 C.2     2  ASP22       0.2345
     53 CB         -2.7474    3.6464   -0.1355 C.3     2  ASP22       0.0138
     54 C          -2.2415    9.4147    9.0492 C.ar    1  UNK11      -0.0600
     55 C          -0.6941    8.6584    7.3822 C.ar    1  UNK11      -0.0600
     56 C          -4.6941    1.8338   -4.8234 C.ar    3  UNK33       0.0189
     57 CE3        -9.4288    1.9749   -4.8513 C.ar    5  TRP55      -0.0523
     58 C          -1.1473    9.6609    8.2314 C.ar    1  UNK11      -0.0616
     59 CZ2        -8.0772    4.4144   -5.2941 C.ar    5  TRP55      -0.0378
     60 CG        -10.8402    0.9729    3.8023 C.2     6  ASP66       0.0440
     61 CZ3        -8.7461    2.2053   -6.0501 C.ar    5  TRP55      -0.0611
     62 C          -4.5293    3.1788   -5.1301 C.ar    3  UNK33      -0.0493
     63 CH2        -8.0880    3.4120   -6.2692 C.ar    5  TRP55      -0.0598
     64 CG         -2.1564    2.7026    0.9065 C.2     2  ASP22       0.0440
     65 C          -4.3007    3.4173   -6.5160 C.ar    3  UNK33      -0.0544
     66 C          -4.2804    2.2489   -7.2381 C.ar    3  UNK33      -0.0240
@<TRIPOS>BOND
     1     1    56   ar
     2     1    66   ar
     3     2    26    2
     4     3    35    2
     5     4    37    2
     6     5    39    2
     7     6    40    2
     8     7    48    2
     9     8    52    2
    10     9    60   ar
    11    10    60   ar
    12    11    64   ar
    13    12    64   ar
    14    13    22    1
    15    13    23    1
    16    14    24    1
    17    14    25    1
    18    14    32    1
    19    15    28    1
    20    15    40   am
    21    16    35   am
    22    16    31    1
    23    17    48   am
    24    17    29    1
    25    18    39   am
    26    18    36    1
    27    19    37   am
    28    19    41    1
    29    20    52   am
    30    20    44    1
    31    21    50   ar
    32    21    51   ar
    33    22    24    1
    34    23    25    1
    35    26    27    1
    36    26    13   am
    37    28    37    1
    38    28    27    1
    39    29    35    1
    40    29    30    1
    41    30    33    1
    42    31    39    1
    43    31    34    1
    44    32    45   ar
    45    32    46   ar
    46    33    43    1
    47    33    42    1
    48    34    38    1
    49    36    40    1
    50    36    49    1
    51    38    47   ar
    52    38    50   ar
    53    41    52    1
    54    41    53    1
    55    44    48    1
    56    44    56    1
    57    45    54   ar
    58    46    55   ar
    59    47    57   ar
    60    47    51   ar
    61    49    60    1
    62    51    59   ar
    63    53    64    1
    64    54    58   ar
    65    55    58   ar
    66    56    62   ar
    67    57    61   ar
    68    59    63   ar
    69    61    63   ar
    70    62    65   ar
    71    65    66   ar
@<TRIPOS>MOLECULE
../ET1/ET1_17-21_50CONFORMERS.pdb
 47 48 0 0 0
SMALL
GASTEIGER

@<TRIPOS>ATOM
      1  N         -4.8600   -0.0130   -1.6420 N.3    17  LEU17      -0.1231
      2  CA        -6.1110   -0.7850   -1.7070 C.3    17  LEU17       0.1693
      3  CB        -6.1060   -1.8910   -0.6040 C.3    17  LEU17       0.0284
      4  CG        -7.3260   -2.7700   -0.5110 C.3    17  LEU17       0.0019
      5  CD1       -7.5330   -3.5860   -1.8080 C.3    17  LEU17       0.0001
      6  CD2       -7.1750   -3.7620    0.6380 C.3    17  LEU17       0.0001
      7  C         -7.3910    0.1230   -1.5920 C.2    17  LEU17       0.2592
      8  O         -8.2890    0.1400   -2.4470 O.2    17  LEU17      -0.2718
      9  N         -7.4630    1.0230   -0.5710 N.am   18  ASP18      -0.1960
     10  CA        -8.6060    1.9280   -0.1770 C.3    18  ASP18       0.1840
     11  CB        -9.6350    1.1900    0.6620 C.3    18  ASP18       0.1450
     12  CG       -10.7540    2.0760    1.0750 C.2    18  ASP18       0.3671
     13  OD1      -10.7090    2.5980    2.1810 O.co2  18  ASP18      -0.2456
     14  OD2      -11.7750    2.1680    0.3490 O.co2  18  ASP18      -0.2456
     15  C         -8.1270    3.2690    0.4310 C.2    18  ASP18       0.2622
     16  O         -8.4550    4.3680   -0.0320 O.2    18  ASP18      -0.2715
     17  N         -7.2680    3.2890    1.4350 N.am   19  ILE19      -0.1963
     18  CA        -6.6180    4.4780    2.0110 C.3    19  ILE19       0.1727
     19  CB        -5.6060    4.1530    3.1840 C.3    19  ILE19       0.0290
     20  CG2       -5.0710    5.4630    3.7780 C.3    19  ILE19       0.0023
     21  CG1       -6.3130    3.3110    4.2570 C.3    19  ILE19       0.0022
     22  CD1       -7.4260    3.9890    5.0080 C.3    19  ILE19       0.0001
     23  C         -5.8570    5.2320    0.9330 C.2    19  ILE19       0.2616
     24  O         -6.1630    6.4430    0.7480 O.2    19  ILE19      -0.2715
     25  N         -4.8930    4.6150    0.2110 N.am   20  ILE20      -0.1963
     26  CA        -4.0370    5.3340   -0.7450 C.3    20  ILE20       0.1727
     27  CB        -2.4570    5.3180   -0.3440 C.3    20  ILE20       0.0290
     28  CG2       -2.2540    6.0130    0.9630 C.3    20  ILE20       0.0023
     29  CG1       -1.6850    3.9000   -0.3880 C.3    20  ILE20       0.0022
     30  CD1       -0.1170    4.0540   -0.3600 C.3    20  ILE20       0.0001
     31  C         -4.2350    4.7430   -2.1630 C.2    20  ILE20       0.2617
     32  O         -4.5360    3.5640   -2.2730 O.2    20  ILE20      -0.2715
     33  N         -4.0240    5.5760   -3.2320 N.am   21  TRP21      -0.1941
     34  CA        -4.2060    5.3440   -4.6130 C.3    21  TRP21       0.1982
     35  CB        -5.5920    5.9330   -5.0080 C.3    21  TRP21       0.0394
     36  CG        -6.7500    5.3280   -4.2680 C.3    21  TRP21       0.0475
     37  CD1       -7.2600    5.6560   -3.0690 C.3    21  TRP21       0.1166
     38  NE1       -8.2550    4.7710   -2.7510 N.pl3  21  TRP21      -0.2376
     39  CE2       -8.5230    3.9140   -3.8170 C.ar   21  TRP21       0.0614
     40  CZ2       -9.4410    2.8940   -4.0290 C.ar   21  TRP21       0.0158
     41  CH2       -9.4520    2.1750   -5.2310 C.ar   21  TRP21       0.0013
     42  CZ3       -8.7260    2.6660   -6.3270 C.ar   21  TRP21      -0.0002
     43  CE3       -7.8990    3.7620   -6.1480 C.ar   21  TRP21      -0.0030
     44  CD2       -7.6800    4.3580   -4.8730 C.ar   21  TRP21      -0.0059
     45  C         -3.2090    5.9310   -5.5650 C.2    21  TRP21       0.3842
     46  O         -2.3720    6.7390   -5.0730 O.co2  21  TRP21      -0.2437
     47  OXT       -3.1210    5.4890   -6.7230 O.co2  21  TRP21      -0.2437
@<TRIPOS>BOND
     1    40    41   ar
     2    40    39   ar
     3    41    42   ar
     4    39    38    1
     5    39    44   ar
     6    42    43   ar
     7    38    37    1
     8    43    44   ar
     9    44    36    1
    10    37    36    1
    11    36    35    1
    12    47    45   ar
    13     5     4    1
    14    35    34    1
    15    45    34    1
    16    45    46   ar
    17    34    33    1
    18     8     7    2
    19     4     6    1
    20     4     3    1
    21     2     3    1
    22     2     1    1
    23     2     7    1
    24     7     9   am
    25    33    31   am
    26    32    31    2
    27    31    26    1
    28     9    10    1
    29    10    11    1
    30    10    15    1
    31    26    27    1
    32    26    25    1
    33    11    12    1
    34    13    12   ar
    35    27    29    1
    36    27    28    1
    37    29    30    1
    38    16    15    2
    39    15    17   am
    40    12    14   ar
    41    25    23   am
    42    17    18    1
    43    23    24    2
    44    23    18    1
    45    18    19    1
    46    19    21    1
    47    19    20    1
    48    21    22    1
