@<TRIPOS>MOLECULE
../ET1/ET1_17-21_50CONFORMERS_NOBACKBONE.pdb
 26 23 0 0 0
SMALL
GASTEIGER

@<TRIPOS>ATOM
      1  CB        -6.4370   -1.5800   -0.4890 C.3    17  LEU17       0.0000
      2  CG        -7.7290   -2.3240   -0.5840 C.3    17  LEU17       0.0000
      3  CD1       -7.5190   -3.3320   -1.7540 C.3    17  LEU17       0.0000
      4  CD2       -8.1240   -3.1540    0.6640 C.3    17  LEU17       0.0000
      5  CB        -9.6890    1.3370    0.5940 C.3    18  ASP18       0.1258
      6  CG       -11.0150    2.0030    0.9100 C.2    18  ASP18       0.3654
      7  OD1      -11.6810    2.5280   -0.0420 O.co2  18  ASP18      -0.2456
      8  OD2      -11.3830    1.9480    2.1450 O.co2  18  ASP18      -0.2456
      9  CB        -5.7270    4.5050    2.6200 C.3    19  ILE19       0.0000
     10  CG2       -4.9760    5.7330    3.0740 C.3    19  ILE19       0.0000
     11  CG1       -6.3620    3.8720    3.8200 C.3    19  ILE19       0.0000
     12  CD1       -5.3830    3.4190    4.9140 C.3    19  ILE19       0.0000
     13  CB        -2.8510    5.7340   -1.3230 C.3    20  ILE20       0.0000
     14  CG2       -2.6770    7.0390   -0.5840 C.3    20  ILE20       0.0000
     15  CG1       -2.0230    4.6170   -0.7130 C.3    20  ILE20       0.0000
     16  CD1       -0.5320    4.6370   -1.0720 C.3    20  ILE20       0.0000
     17  CB        -6.6140    3.3930   -4.9190 C.3    21  TRP21       0.0066
     18  CG        -7.1090    2.6790   -6.1830 C.3    21  TRP21       0.0452
     19  CD1       -6.9010    1.3600   -6.4540 C.3    21  TRP21       0.1165
     20  NE1       -7.6490    0.9550   -7.5090 N.pl3  21  TRP21      -0.2376
     21  CE2       -8.5210    1.9570   -7.8340 C.ar   21  TRP21       0.0614
     22  CZ2       -9.5440    1.9900   -8.7760 C.ar   21  TRP21       0.0158
     23  CH2      -10.2610    3.1960   -8.9890 C.ar   21  TRP21       0.0013
     24  CZ3       -9.9540    4.3430   -8.2600 C.ar   21  TRP21      -0.0002
     25  CE3       -8.8810    4.2500   -7.3270 C.ar   21  TRP21      -0.0030
     26  CD2       -8.1390    3.0640   -7.1040 C.ar   21  TRP21      -0.0059
@<TRIPOS>BOND
     1    22    23   ar
     2    22    21   ar
     3    23    24   ar
     4    21    20    1
     5    21    26   ar
     6    24    25   ar
     7    20    19    1
     8    25    26   ar
     9    26    18    1
    10    19    18    1
    11    18    17    1
    12     3     2    1
    13     2     4    1
    14     2     1    1
    15     5     6    1
    16     7     6   ar
    17    13    15    1
    18    13    14    1
    19    15    16    1
    20     6     8   ar
    21     9    11    1
    22     9    10    1
    23    11    12    1
@<TRIPOS>MOLECULE
2-[[2-[2-butyl-4-[(Z)-2-carboxy-3-(6-methoxy-1,3-benzodioxol-5-yl)prop-1-enyl]pyrazol-3-yl]-5-methoxyphenoxy]methyl]benzoic acid
 45 49 0 0 0
SMALL
GASTEIGER

@<TRIPOS>ATOM
      1 O          -3.4888    2.1023   -2.5290 O.3     1  LIG11      -0.4866
      2 O         -10.6259    5.1061   -6.2655 O.3     1  LIG11      -0.4526
      3 O         -11.7480    4.5265   -8.3185 O.3     1  LIG11      -0.4525
      4 O          -8.3049    1.2480   -9.4028 O.3     1  LIG11      -0.4947
      5 O          -4.9721    3.4329    1.6790 O.3     1  LIG11      -0.4950
      6 O          -5.1688    4.2991   -7.7141 O.co2   1  LIG11      -0.5449
      7 O          -5.7097    4.9734   -5.6010 O.co2   1  LIG11      -0.5449
      8 O          -1.3161   -1.3418   -3.8375 O.co2   1  LIG11      -0.5446
      9 O          -0.5578   -0.9720   -5.9357 O.co2   1  LIG11      -0.5446
     10 N          -6.4213   -0.7683   -3.1864 N.ar    1  LIG11      -0.2630
     11 N          -6.2183   -1.3571   -4.3829 N.ar    1  LIG11      -0.1785
     12 C          -5.9470    0.5381   -3.1190 C.ar    1  LIG11       0.0795
     13 C          -7.3419   -1.4497   -2.2935 C.3     1  LIG11       0.0422
     14 C          -6.7237   -2.0940   -1.0580 C.3     1  LIG11      -0.0336
     15 C          -5.7549    0.8763   -4.4562 C.ar    1  LIG11       0.0207
     16 C          -5.7077    1.3004   -1.8780 C.ar    1  LIG11       0.0425
     17 C          -7.7872   -2.7643   -0.1767 C.3     1  LIG11      -0.0542
     18 C          -5.7789   -0.3549   -5.1437 C.ar    1  LIG11       0.0571
     19 C          -5.5041    2.1789   -4.9952 C.2     1  LIG11      -0.0459
     20 C          -6.8360    1.9907   -7.1811 C.3     1  LIG11       0.0029
     21 C          -4.4712    1.9146   -1.5948 C.ar    1  LIG11       0.1336
     22 C          -5.9601    2.6768   -6.1656 C.2     1  LIG11      -0.0200
     23 C          -8.1858    2.6339   -7.4866 C.ar    1  LIG11       0.0023
     24 C          -6.7242    1.4429   -0.9186 C.ar    1  LIG11      -0.0456
     25 C          -8.7086   -1.7743    0.5245 C.3     1  LIG11      -0.0652
     26 C          -4.2724    2.6137   -0.3932 C.ar    1  LIG11       0.0224
     27 C          -8.8921    2.2409   -8.6580 C.ar    1  LIG11       0.1273
     28 C          -8.7618    3.5762   -6.6118 C.ar    1  LIG11      -0.0092
     29 C          -6.5158    2.1222    0.2907 C.ar    1  LIG11      -0.0191
     30 C          -9.9557    4.1570   -6.9707 C.ar    1  LIG11       0.1667
     31 C          -5.2873    2.7167    0.5559 C.ar    1  LIG11       0.1236
     32 C         -10.5985    3.8171   -8.1361 C.ar    1  LIG11       0.1697
     33 C         -10.1047    2.8555   -8.9926 C.ar    1  LIG11       0.0258
     34 C          -5.5490    4.1212   -6.5215 C.2     1  LIG11       0.0680
     35 C          -2.5938    0.9988   -2.7622 C.3     1  LIG11       0.1153
     36 C         -11.6843    5.4173   -7.1848 C.3     1  LIG11       0.2332
     37 C          -1.3392    1.5679   -3.4209 C.ar    1  LIG11      -0.0016
     38 C          -0.6039    0.8587   -4.4013 C.ar    1  LIG11       0.0037
     39 C          -0.8938    2.8571   -3.0492 C.ar    1  LIG11      -0.0547
     40 C          -9.0579    0.6885  -10.4657 C.3     1  LIG11       0.0788
     41 C           0.4668    1.5124   -5.0490 C.ar    1  LIG11      -0.0525
     42 C           0.1925    3.4675   -3.6765 C.ar    1  LIG11      -0.0614
     43 C          -6.0650    3.8485    2.4873 C.3     1  LIG11       0.0788
     44 C           0.8603    2.8028   -4.6958 C.ar    1  LIG11      -0.0611
     45 C          -0.8769   -0.5899   -4.7615 C.2     1  LIG11       0.0720
@<TRIPOS>BOND
     1     1    35    1
     2     1    21    1
     3     2    36    1
     4     2    30    1
     5     3    32    1
     6     3    36    1
     7     4    27    1
     8     4    40    1
     9     5    31    1
    10     5    43    1
    11     6    34   ar
    12     7    34   ar
    13     8    45   ar
    14     9    45   ar
    15    10    11   ar
    16    10    12   ar
    17    10    13    1
    18    11    18   ar
    19    12    15   ar
    20    13    14    1
    21    14    17    1
    22    15    18   ar
    23    15    19    1
    24    16    24   ar
    25    16    21   ar
    26    16    12    1
    27    17    25    1
    28    19    22    2
    29    20    22    1
    30    20    23    1
    31    21    26   ar
    32    22    34    1
    33    23    28   ar
    34    23    27   ar
    35    24    29   ar
    36    26    31   ar
    37    27    33   ar
    38    28    30   ar
    39    29    31   ar
    40    30    32   ar
    41    32    33   ar
    42    35    37    1
    43    37    39   ar
    44    37    38   ar
    45    38    41   ar
    46    38    45    1
    47    39    42   ar
    48    41    44   ar
    49    42    44   ar
@<TRIPOS>MOLECULE
../ET1/ET1_17-21_50CONFORMERS.pdb
 47 48 0 0 0
SMALL
GASTEIGER

@<TRIPOS>ATOM
      1  N         -4.8640    0.0950   -1.5660 N.3    17  LEU17      -0.1231
      2  CA        -6.2110   -0.4950   -1.6480 C.3    17  LEU17       0.1693
      3  CB        -6.4370   -1.5800   -0.4890 C.3    17  LEU17       0.0284
      4  CG        -7.7290   -2.3240   -0.5840 C.3    17  LEU17       0.0019
      5  CD1       -7.5190   -3.3320   -1.7540 C.3    17  LEU17       0.0001
      6  CD2       -8.1240   -3.1540    0.6640 C.3    17  LEU17       0.0001
      7  C         -7.3380    0.5140   -1.6640 C.2    17  LEU17       0.2592
      8  O         -8.1150    0.5180   -2.6330 O.2    17  LEU17      -0.2718
      9  N         -7.5490    1.2830   -0.5870 N.am   18  ASP18      -0.1960
     10  CA        -8.7710    2.1160   -0.4280 C.3    18  ASP18       0.1840
     11  CB        -9.6890    1.3370    0.5940 C.3    18  ASP18       0.1450
     12  CG       -11.0150    2.0030    0.9100 C.2    18  ASP18       0.3671
     13  OD1      -11.6810    2.5280   -0.0420 O.co2  18  ASP18      -0.2456
     14  OD2      -11.3830    1.9480    2.1450 O.co2  18  ASP18      -0.2456
     15  C         -8.4150    3.5200    0.1100 C.2    18  ASP18       0.2622
     16  O         -8.9730    4.5660   -0.2410 O.2    18  ASP18      -0.2715
     17  N         -7.3620    3.5650    0.9550 N.am   19  ILE19      -0.1963
     18  CA        -6.6980    4.7620    1.4650 C.3    19  ILE19       0.1727
     19  CB        -5.7270    4.5050    2.6200 C.3    19  ILE19       0.0290
     20  CG2       -4.9760    5.7330    3.0740 C.3    19  ILE19       0.0023
     21  CG1       -6.3620    3.8720    3.8200 C.3    19  ILE19       0.0022
     22  CD1       -5.3830    3.4190    4.9140 C.3    19  ILE19       0.0001
     23  C         -5.8840    5.5580    0.3470 C.2    19  ILE19       0.2616
     24  O         -6.1000    6.7600    0.1560 O.2    19  ILE19      -0.2715
     25  N         -4.9860    4.9120   -0.3880 N.am   20  ILE20      -0.1963
     26  CA        -4.3890    5.4830   -1.5810 C.3    20  ILE20       0.1727
     27  CB        -2.8510    5.7340   -1.3230 C.3    20  ILE20       0.0290
     28  CG2       -2.6770    7.0390   -0.5840 C.3    20  ILE20       0.0023
     29  CG1       -2.0230    4.6170   -0.7130 C.3    20  ILE20       0.0022
     30  CD1       -0.5320    4.6370   -1.0720 C.3    20  ILE20       0.0001
     31  C         -4.5570    4.5110   -2.7290 C.2    20  ILE20       0.2617
     32  O         -4.3120    3.2810   -2.6410 O.2    20  ILE20      -0.2715
     33  N         -5.0390    4.9920   -3.8660 N.am   21  TRP21      -0.1941
     34  CA        -5.3540    4.2160   -5.0990 C.3    21  TRP21       0.1982
     35  CB        -6.6140    3.3930   -4.9190 C.3    21  TRP21       0.0394
     36  CG        -7.1090    2.6790   -6.1830 C.3    21  TRP21       0.0475
     37  CD1       -6.9010    1.3600   -6.4540 C.3    21  TRP21       0.1166
     38  NE1       -7.6490    0.9550   -7.5090 N.pl3  21  TRP21      -0.2376
     39  CE2       -8.5210    1.9570   -7.8340 C.ar   21  TRP21       0.0614
     40  CZ2       -9.5440    1.9900   -8.7760 C.ar   21  TRP21       0.0158
     41  CH2      -10.2610    3.1960   -8.9890 C.ar   21  TRP21       0.0013
     42  CZ3       -9.9540    4.3430   -8.2600 C.ar   21  TRP21      -0.0002
     43  CE3       -8.8810    4.2500   -7.3270 C.ar   21  TRP21      -0.0030
     44  CD2       -8.1390    3.0640   -7.1040 C.ar   21  TRP21      -0.0059
     45  C         -5.3760    5.0420   -6.4070 C.2    21  TRP21       0.3842
     46  O         -5.8420    6.2330   -6.3310 O.co2  21  TRP21      -0.2437
     47  OXT       -4.7220    4.5940   -7.3310 O.co2  21  TRP21      -0.2437
@<TRIPOS>BOND
     1    40    41   ar
     2    40    39   ar
     3    41    42   ar
     4    39    38    1
     5    39    44   ar
     6    42    43   ar
     7    38    37    1
     8    43    44   ar
     9    44    36    1
    10    37    36    1
    11    36    35    1
    12    47    45   ar
    13     5     4    1
    14    35    34    1
    15    45    34    1
    16    45    46   ar
    17    34    33    1
    18     8     7    2
    19     4     6    1
    20     4     3    1
    21     2     3    1
    22     2     1    1
    23     2     7    1
    24     7     9   am
    25    33    31   am
    26    32    31    2
    27    31    26    1
    28     9    10    1
    29    10    11    1
    30    10    15    1
    31    26    27    1
    32    26    25    1
    33    11    12    1
    34    13    12   ar
    35    27    29    1
    36    27    28    1
    37    29    30    1
    38    16    15    2
    39    15    17   am
    40    12    14   ar
    41    25    23   am
    42    17    18    1
    43    23    24    2
    44    23    18    1
    45    18    19    1
    46    19    21    1
    47    19    20    1
    48    21    22    1
