@<TRIPOS>MOLECULE
../ET1/ET1_17-21_50CONFORMERS_NOBACKBONE.pdb
 26 23 0 0 0
SMALL
GASTEIGER

@<TRIPOS>ATOM
      1  CB        -6.4370   -1.5800   -0.4890 C.3    17  LEU17       0.0000
      2  CG        -7.7290   -2.3240   -0.5840 C.3    17  LEU17       0.0000
      3  CD1       -7.5190   -3.3320   -1.7540 C.3    17  LEU17       0.0000
      4  CD2       -8.1240   -3.1540    0.6640 C.3    17  LEU17       0.0000
      5  CB        -9.6890    1.3370    0.5940 C.3    18  ASP18       0.1258
      6  CG       -11.0150    2.0030    0.9100 C.2    18  ASP18       0.3654
      7  OD1      -11.6810    2.5280   -0.0420 O.co2  18  ASP18      -0.2456
      8  OD2      -11.3830    1.9480    2.1450 O.co2  18  ASP18      -0.2456
      9  CB        -5.7270    4.5050    2.6200 C.3    19  ILE19       0.0000
     10  CG2       -4.9760    5.7330    3.0740 C.3    19  ILE19       0.0000
     11  CG1       -6.3620    3.8720    3.8200 C.3    19  ILE19       0.0000
     12  CD1       -5.3830    3.4190    4.9140 C.3    19  ILE19       0.0000
     13  CB        -2.8510    5.7340   -1.3230 C.3    20  ILE20       0.0000
     14  CG2       -2.6770    7.0390   -0.5840 C.3    20  ILE20       0.0000
     15  CG1       -2.0230    4.6170   -0.7130 C.3    20  ILE20       0.0000
     16  CD1       -0.5320    4.6370   -1.0720 C.3    20  ILE20       0.0000
     17  CB        -6.6140    3.3930   -4.9190 C.3    21  TRP21       0.0066
     18  CG        -7.1090    2.6790   -6.1830 C.3    21  TRP21       0.0452
     19  CD1       -6.9010    1.3600   -6.4540 C.3    21  TRP21       0.1165
     20  NE1       -7.6490    0.9550   -7.5090 N.pl3  21  TRP21      -0.2376
     21  CE2       -8.5210    1.9570   -7.8340 C.ar   21  TRP21       0.0614
     22  CZ2       -9.5440    1.9900   -8.7760 C.ar   21  TRP21       0.0158
     23  CH2      -10.2610    3.1960   -8.9890 C.ar   21  TRP21       0.0013
     24  CZ3       -9.9540    4.3430   -8.2600 C.ar   21  TRP21      -0.0002
     25  CE3       -8.8810    4.2500   -7.3270 C.ar   21  TRP21      -0.0030
     26  CD2       -8.1390    3.0640   -7.1040 C.ar   21  TRP21      -0.0059
@<TRIPOS>BOND
     1    22    23   ar
     2    22    21   ar
     3    23    24   ar
     4    21    20    1
     5    21    26   ar
     6    24    25   ar
     7    20    19    1
     8    25    26   ar
     9    26    18    1
    10    19    18    1
    11    18    17    1
    12     3     2    1
    13     2     4    1
    14     2     1    1
    15     5     6    1
    16     7     6   ar
    17    13    15    1
    18    13    14    1
    19    15    16    1
    20     6     8   ar
    21     9    11    1
    22     9    10    1
    23    11    12    1
@<TRIPOS>MOLECULE
16219006
 44 47 0 0 0
SMALL
GASTEIGER

@<TRIPOS>ATOM
      1 O          -5.8006    0.1557    1.0561 O.2     1  PRO11      -0.2738
      2 O          -8.7142    2.2459   -1.2470 O.2     5  ASP55      -0.2735
      3 O          -6.4156    4.6887   -0.3334 O.2     2  VAL22      -0.2738
      4 O          -6.6798    0.2120   -5.2135 O.2     4  TRP44      -0.2738
      5 O          -3.6623    1.8715   -2.7941 O.2     3  LEU33      -0.2738
      6 OD1       -12.3373    1.7698   -3.6348 O.co2   5  ASP55      -0.5497
      7 OD2       -11.0833    0.0396   -2.8413 O.co2   5  ASP55      -0.5497
      8 N          -8.1137    0.0605   -1.2513 N.am    1  PRO11      -0.2884
      9 N          -7.0584    2.0646    0.9432 N.am    2  VAL22      -0.3022
     10 N          -7.5596    1.8846   -3.9098 N.am    5  ASP55      -0.3021
     11 N          -4.4977    3.4635   -0.5665 N.am    3  LEU33      -0.3025
     12 N          -5.1108    3.2226   -3.9582 N.am    4  TRP44      -0.3022
     13 NE1        -8.2316    5.5280   -6.1399 N.ar    4  TRP44      -0.3604
     14 CA         -8.0967   -0.0284    0.2066 C.3     1  PRO11       0.1023
     15 CB         -8.0695   -1.5315    0.4968 C.3     1  PRO11      -0.0243
     16 CG         -7.4266   -2.1273   -0.7502 C.3     1  PRO11      -0.0350
     17 CD         -7.9730   -1.2489   -1.8635 C.3     1  PRO11       0.0156
     18 C          -6.8656    0.7068    0.7830 C.2     1  PRO11       0.2342
     19 C          -8.5986    1.1878   -1.8840 C.2     5  ASP55       0.2369
     20 CA         -5.9772    2.9626    1.3292 C.3     2  VAL22       0.1017
     21 CA         -8.7461    1.1611   -3.4263 C.3     5  ASP55       0.1047
     22 CB         -6.3828    3.8673    2.5133 C.3     2  VAL22      -0.0197
     23 CA         -4.1783    4.0506   -1.8580 C.3     3  LEU33       0.0996
     24 C          -5.6662    3.8051    0.0796 C.2     2  VAL22       0.2342
     25 CB        -10.0044    1.8890   -3.8691 C.3     5  ASP55       0.0138
     26 CA         -5.3898    2.2514   -5.0227 C.3     4  TRP44       0.1034
     27 CB         -2.7689    4.6540   -1.8811 C.3     3  LEU33      -0.0236
     28 CG         -2.5750    5.8632   -0.9412 C.3     3  LEU33      -0.0446
     29 C          -6.5797    1.3221   -4.6927 C.2     4  TRP44       0.2343
     30 CB         -5.5910    2.9542   -6.3763 C.3     4  TRP44       0.0013
     31 C          -4.2815    2.9278   -2.9022 C.2     3  LEU33       0.2340
     32 CG1        -5.2623    4.8564    2.8628 C.3     2  VAL22      -0.0605
     33 CG2        -6.7148    3.0335    3.7563 C.3     2  VAL22      -0.0605
     34 CG         -6.7965    3.8494   -6.4586 C.ar    4  TRP44      -0.0201
     35 CG        -11.2563    1.1586   -3.3991 C.2     5  ASP55       0.0440
     36 CD1        -1.1309    6.3636   -1.0373 C.3     3  LEU33      -0.0626
     37 CD2        -3.5340    7.0148   -1.2502 C.3     3  LEU33      -0.0626
     38 CD2        -8.0092    3.5670   -7.1703 C.ar    4  TRP44       0.0029
     39 CD1        -6.9574    5.0965   -5.8814 C.ar    4  TRP44       0.0060
     40 CE2        -8.8818    4.6324   -6.9527 C.ar    4  TRP44       0.0467
     41 CE3        -8.4521    2.4915   -7.9678 C.ar    4  TRP44      -0.0523
     42 CZ2       -10.1748    4.6765   -7.4865 C.ar    4  TRP44      -0.0378
     43 CZ3        -9.7373    2.5247   -8.5206 C.ar    4  TRP44      -0.0611
     44 CH2       -10.5854    3.6022   -8.2797 C.ar    4  TRP44      -0.0598
@<TRIPOS>BOND
     1     1    18    2
     2     2    19    2
     3     3    24    2
     4     4    29    2
     5     5    31    2
     6     6    35   ar
     7     7    35   ar
     8     8    14    1
     9     8    17    1
    10     8    19   am
    11     9    18   am
    12     9    20    1
    13    10    21    1
    14    10    29   am
    15    11    23    1
    16    11    24   am
    17    12    26    1
    18    12    31   am
    19    13    39   ar
    20    13    40   ar
    21    14    15    1
    22    14    18    1
    23    15    16    1
    24    16    17    1
    25    19    21    1
    26    20    22    1
    27    20    24    1
    28    21    25    1
    29    22    32    1
    30    22    33    1
    31    23    27    1
    32    23    31    1
    33    25    35    1
    34    26    29    1
    35    26    30    1
    36    27    28    1
    37    28    36    1
    38    28    37    1
    39    30    34    1
    40    34    38   ar
    41    34    39   ar
    42    38    40   ar
    43    38    41   ar
    44    40    42   ar
    45    41    43   ar
    46    42    44   ar
    47    43    44   ar
@<TRIPOS>MOLECULE
../ET1/ET1_17-21_50CONFORMERS.pdb
 47 48 0 0 0
SMALL
GASTEIGER

@<TRIPOS>ATOM
      1  N         -4.8640    0.0950   -1.5660 N.3    17  LEU17      -0.1231
      2  CA        -6.2110   -0.4950   -1.6480 C.3    17  LEU17       0.1693
      3  CB        -6.4370   -1.5800   -0.4890 C.3    17  LEU17       0.0284
      4  CG        -7.7290   -2.3240   -0.5840 C.3    17  LEU17       0.0019
      5  CD1       -7.5190   -3.3320   -1.7540 C.3    17  LEU17       0.0001
      6  CD2       -8.1240   -3.1540    0.6640 C.3    17  LEU17       0.0001
      7  C         -7.3380    0.5140   -1.6640 C.2    17  LEU17       0.2592
      8  O         -8.1150    0.5180   -2.6330 O.2    17  LEU17      -0.2718
      9  N         -7.5490    1.2830   -0.5870 N.am   18  ASP18      -0.1960
     10  CA        -8.7710    2.1160   -0.4280 C.3    18  ASP18       0.1840
     11  CB        -9.6890    1.3370    0.5940 C.3    18  ASP18       0.1450
     12  CG       -11.0150    2.0030    0.9100 C.2    18  ASP18       0.3671
     13  OD1      -11.6810    2.5280   -0.0420 O.co2  18  ASP18      -0.2456
     14  OD2      -11.3830    1.9480    2.1450 O.co2  18  ASP18      -0.2456
     15  C         -8.4150    3.5200    0.1100 C.2    18  ASP18       0.2622
     16  O         -8.9730    4.5660   -0.2410 O.2    18  ASP18      -0.2715
     17  N         -7.3620    3.5650    0.9550 N.am   19  ILE19      -0.1963
     18  CA        -6.6980    4.7620    1.4650 C.3    19  ILE19       0.1727
     19  CB        -5.7270    4.5050    2.6200 C.3    19  ILE19       0.0290
     20  CG2       -4.9760    5.7330    3.0740 C.3    19  ILE19       0.0023
     21  CG1       -6.3620    3.8720    3.8200 C.3    19  ILE19       0.0022
     22  CD1       -5.3830    3.4190    4.9140 C.3    19  ILE19       0.0001
     23  C         -5.8840    5.5580    0.3470 C.2    19  ILE19       0.2616
     24  O         -6.1000    6.7600    0.1560 O.2    19  ILE19      -0.2715
     25  N         -4.9860    4.9120   -0.3880 N.am   20  ILE20      -0.1963
     26  CA        -4.3890    5.4830   -1.5810 C.3    20  ILE20       0.1727
     27  CB        -2.8510    5.7340   -1.3230 C.3    20  ILE20       0.0290
     28  CG2       -2.6770    7.0390   -0.5840 C.3    20  ILE20       0.0023
     29  CG1       -2.0230    4.6170   -0.7130 C.3    20  ILE20       0.0022
     30  CD1       -0.5320    4.6370   -1.0720 C.3    20  ILE20       0.0001
     31  C         -4.5570    4.5110   -2.7290 C.2    20  ILE20       0.2617
     32  O         -4.3120    3.2810   -2.6410 O.2    20  ILE20      -0.2715
     33  N         -5.0390    4.9920   -3.8660 N.am   21  TRP21      -0.1941
     34  CA        -5.3540    4.2160   -5.0990 C.3    21  TRP21       0.1982
     35  CB        -6.6140    3.3930   -4.9190 C.3    21  TRP21       0.0394
     36  CG        -7.1090    2.6790   -6.1830 C.3    21  TRP21       0.0475
     37  CD1       -6.9010    1.3600   -6.4540 C.3    21  TRP21       0.1166
     38  NE1       -7.6490    0.9550   -7.5090 N.pl3  21  TRP21      -0.2376
     39  CE2       -8.5210    1.9570   -7.8340 C.ar   21  TRP21       0.0614
     40  CZ2       -9.5440    1.9900   -8.7760 C.ar   21  TRP21       0.0158
     41  CH2      -10.2610    3.1960   -8.9890 C.ar   21  TRP21       0.0013
     42  CZ3       -9.9540    4.3430   -8.2600 C.ar   21  TRP21      -0.0002
     43  CE3       -8.8810    4.2500   -7.3270 C.ar   21  TRP21      -0.0030
     44  CD2       -8.1390    3.0640   -7.1040 C.ar   21  TRP21      -0.0059
     45  C         -5.3760    5.0420   -6.4070 C.2    21  TRP21       0.3842
     46  O         -5.8420    6.2330   -6.3310 O.co2  21  TRP21      -0.2437
     47  OXT       -4.7220    4.5940   -7.3310 O.co2  21  TRP21      -0.2437
@<TRIPOS>BOND
     1    40    41   ar
     2    40    39   ar
     3    41    42   ar
     4    39    38    1
     5    39    44   ar
     6    42    43   ar
     7    38    37    1
     8    43    44   ar
     9    44    36    1
    10    37    36    1
    11    36    35    1
    12    47    45   ar
    13     5     4    1
    14    35    34    1
    15    45    34    1
    16    45    46   ar
    17    34    33    1
    18     8     7    2
    19     4     6    1
    20     4     3    1
    21     2     3    1
    22     2     1    1
    23     2     7    1
    24     7     9   am
    25    33    31   am
    26    32    31    2
    27    31    26    1
    28     9    10    1
    29    10    11    1
    30    10    15    1
    31    26    27    1
    32    26    25    1
    33    11    12    1
    34    13    12   ar
    35    27    29    1
    36    27    28    1
    37    29    30    1
    38    16    15    2
    39    15    17   am
    40    12    14   ar
    41    25    23   am
    42    17    18    1
    43    23    24    2
    44    23    18    1
    45    18    19    1
    46    19    21    1
    47    19    20    1
    48    21    22    1
