@<TRIPOS>MOLECULE
../ET1/ET1_17-21_50CONFORMERS_NOBACKBONE.pdb
 26 23 0 0 0
SMALL
GASTEIGER

@<TRIPOS>ATOM
      1  CB        -5.9250   -1.7020   -0.6090 C.3    17  LEU17       0.0000
      2  CG        -7.3350   -2.3400   -0.4320 C.3    17  LEU17       0.0000
      3  CD1       -7.8250   -2.9760   -1.7640 C.3    17  LEU17       0.0000
      4  CD2       -7.2810   -3.4490    0.6510 C.3    17  LEU17       0.0000
      5  CB        -9.3810    1.8010   -0.1350 C.3    18  ASP18       0.1258
      6  CG       -10.3510    2.9420   -0.1480 C.2    18  ASP18       0.3654
      7  OD1      -10.3540    3.7630    0.8020 O.co2  18  ASP18      -0.2456
      8  OD2      -11.1620    3.0020   -1.0640 O.co2  18  ASP18      -0.2456
      9  CB        -5.8480    4.1110    2.8050 C.3    19  ILE19       0.0000
     10  CG2       -4.4360    3.5410    2.6990 C.3    19  ILE19       0.0000
     11  CG1       -5.9520    5.2180    3.9010 C.3    19  ILE19       0.0000
     12  CD1       -5.2700    5.0410    5.2910 C.3    19  ILE19       0.0000
     13  CB        -2.2050    5.5180   -0.6590 C.3    20  ILE20       0.0000
     14  CG2       -2.0270    6.7600    0.2650 C.3    20  ILE20       0.0000
     15  CG1       -1.7390    4.2780    0.0680 C.3    20  ILE20       0.0000
     16  CD1       -0.2410    4.0620   -0.1470 C.3    20  ILE20       0.0000
     17  CB        -5.9180    4.2520   -5.1860 C.3    21  TRP21       0.0066
     18  CG        -6.1830    3.4440   -6.3980 C.3    21  TRP21       0.0452
     19  CD1       -6.5530    3.9940   -7.5750 C.3    21  TRP21       0.1165
     20  NE1       -6.7950    2.9250   -8.4560 N.pl3  21  TRP21      -0.2376
     21  CE2       -6.5250    1.7210   -7.8750 C.ar   21  TRP21       0.0614
     22  CZ2       -6.5900    0.4160   -8.3270 C.ar   21  TRP21       0.0158
     23  CH2       -6.3030   -0.7230   -7.4870 C.ar   21  TRP21       0.0013
     24  CZ3       -5.7700   -0.4130   -6.2280 C.ar   21  TRP21      -0.0002
     25  CE3       -5.6490    0.9570   -5.7980 C.ar   21  TRP21      -0.0030
     26  CD2       -6.0710    2.0140   -6.5550 C.ar   21  TRP21      -0.0059
@<TRIPOS>BOND
     1    22    23   ar
     2    22    21   ar
     3    23    24   ar
     4    21    20    1
     5    21    26   ar
     6    24    25   ar
     7    20    19    1
     8    25    26   ar
     9    26    18    1
    10    19    18    1
    11    18    17    1
    12     3     2    1
    13     2     4    1
    14     2     1    1
    15     5     6    1
    16     7     6   ar
    17    13    15    1
    18    13    14    1
    19    15    16    1
    20     6     8   ar
    21     9    11    1
    22     9    10    1
    23    11    12    1
@<TRIPOS>MOLECULE
9911482
 30 32 0 0 0
SMALL
GASTEIGER

@<TRIPOS>ATOM
      1 S          -3.7566    0.6348   -0.4831 S.O2    1  LIG11       0.0758
      2 S          -1.2176    1.5128   -3.7798 S.2     1  LIG11      -0.0902
      3 O          -4.3304   -0.2728    2.3931 O.2     1  LIG11      -0.3377
      4 O          -3.5704   -0.7793   -0.2746 O.2     1  LIG11      -0.1499
      5 O          -4.9425    1.2463   -1.0434 O.2     1  LIG11      -0.1499
      6 O          -4.4611   -0.4909   -3.3102 O.2     1  LIG11      -0.2692
      7 O          -4.2078    3.4724   -5.7647 O.2     1  LIG11      -0.2923
      8 N          -3.9518    1.0138   -4.9793 N.am    1  LIG11      -0.2802
      9 N          -3.4260    1.5045    0.9348 N.pl3   1  LIG11      -0.1831
     10 N          -5.1121   -0.3723    3.5264 N.ar    1  LIG11      -0.0810
     11 C          -4.9667    0.6957   -5.9162 C.ar    1  LIG11       0.0471
     12 C          -2.5027    1.0461   -1.6138 C.ar    1  LIG11       0.1277
     13 C          -5.2854   -0.6309   -6.2754 C.ar    1  LIG11      -0.0283
     14 C          -5.6484    1.7638   -6.5533 C.ar    1  LIG11       0.0388
     15 C          -2.6351    0.9499   -2.9874 C.ar    1  LIG11       0.1007
     16 C          -7.0281    0.1869   -7.7920 C.ar    1  LIG11      -0.0494
     17 C          -6.3377   -0.8636   -7.1832 C.ar    1  LIG11      -0.0541
     18 C          -6.6697    1.4997   -7.4797 C.ar    1  LIG11      -0.0466
     19 C          -3.7489    0.4028   -3.7536 C.2     1  LIG11       0.2568
     20 C          -4.1775    1.0337    2.0497 C.ar    1  LIG11       0.2399
     21 C          -1.2109    1.5131   -1.2152 C.ar    1  LIG11      -0.0273
     22 C          -4.8481    1.8263    2.9610 C.ar    1  LIG11       0.0350
     23 C          -4.5400   -1.8464   -5.7887 C.3     1  LIG11      -0.0379
     24 C          -5.3149    3.1874   -6.2228 C.2     1  LIG11       0.1619
     25 C          -5.4327    0.8825    3.8545 C.ar    1  LIG11       0.0854
     26 C          -0.4142    1.8015   -2.2998 C.ar    1  LIG11      -0.0217
     27 C          -8.1422   -0.0840   -8.7599 C.3     1  LIG11      -0.0397
     28 C          -4.9999    3.2972    3.0044 C.3     1  LIG11      -0.0330
     29 C          -6.3176    1.1413    5.0144 C.3     1  LIG11      -0.0188
     30 C          -6.3502    4.2575   -6.4622 C.3     1  LIG11      -0.0013
@<TRIPOS>BOND
     1     1     4    2
     2     1     5    2
     3     1     9    1
     4     1    12    1
     5     2    15   ar
     6     2    26   ar
     7     3    10   ar
     8     3    20   ar
     9     6    19    2
    10     7    24    2
    11     8    11    1
    12     8    19   am
    13     9    20    1
    14    10    25   ar
    15    11    13   ar
    16    11    14   ar
    17    12    15   ar
    18    12    21   ar
    19    13    17   ar
    20    13    23    1
    21    14    18   ar
    22    14    24    1
    23    15    19    1
    24    16    17   ar
    25    16    18   ar
    26    16    27    1
    27    20    22   ar
    28    21    26   ar
    29    22    25   ar
    30    22    28    1
    31    24    30    1
    32    25    29    1
@<TRIPOS>MOLECULE
../ET1/ET1_17-21_50CONFORMERS.pdb
 47 48 0 0 0
SMALL
GASTEIGER

@<TRIPOS>ATOM
      1  N         -4.3700   -0.2050   -1.7330 N.3    17  LEU17      -0.1231
      2  CA        -5.7270   -0.7750   -1.8670 C.3    17  LEU17       0.1693
      3  CB        -5.9250   -1.7020   -0.6090 C.3    17  LEU17       0.0284
      4  CG        -7.3350   -2.3400   -0.4320 C.3    17  LEU17       0.0019
      5  CD1       -7.8250   -2.9760   -1.7640 C.3    17  LEU17       0.0001
      6  CD2       -7.2810   -3.4490    0.6510 C.3    17  LEU17       0.0001
      7  C         -6.8660    0.3180   -2.0260 C.2    17  LEU17       0.2592
      8  O         -7.5290    0.4260   -3.0600 O.2    17  LEU17      -0.2718
      9  N         -7.1710    1.0340   -0.9730 N.am   18  ASP18      -0.1960
     10  CA        -8.1490    2.1740   -0.9600 C.3    18  ASP18       0.1840
     11  CB        -9.3810    1.8010   -0.1350 C.3    18  ASP18       0.1450
     12  CG       -10.3510    2.9420   -0.1480 C.2    18  ASP18       0.3671
     13  OD1      -10.3540    3.7630    0.8020 O.co2  18  ASP18      -0.2456
     14  OD2      -11.1620    3.0020   -1.0640 O.co2  18  ASP18      -0.2456
     15  C         -7.5260    3.4970   -0.5310 C.2    18  ASP18       0.2622
     16  O         -7.5490    4.4920   -1.2150 O.2    18  ASP18      -0.2715
     17  N         -7.0110    3.4560    0.6880 N.am   19  ILE19      -0.1963
     18  CA        -6.4050    4.6090    1.4860 C.3    19  ILE19       0.1727
     19  CB        -5.8480    4.1110    2.8050 C.3    19  ILE19       0.0290
     20  CG2       -4.4360    3.5410    2.6990 C.3    19  ILE19       0.0023
     21  CG1       -5.9520    5.2180    3.9010 C.3    19  ILE19       0.0022
     22  CD1       -5.2700    5.0410    5.2910 C.3    19  ILE19       0.0001
     23  C         -5.3800    5.4660    0.7170 C.2    19  ILE19       0.2616
     24  O         -5.2630    6.6980    1.0150 O.2    19  ILE19      -0.2715
     25  N         -4.6510    4.8890   -0.3130 N.am   20  ILE20      -0.1963
     26  CA        -3.6930    5.5110   -1.2680 C.3    20  ILE20       0.1727
     27  CB        -2.2050    5.5180   -0.6590 C.3    20  ILE20       0.0290
     28  CG2       -2.0270    6.7600    0.2650 C.3    20  ILE20       0.0023
     29  CG1       -1.7390    4.2780    0.0680 C.3    20  ILE20       0.0022
     30  CD1       -0.2410    4.0620   -0.1470 C.3    20  ILE20       0.0001
     31  C         -3.7690    4.7160   -2.6150 C.2    20  ILE20       0.2617
     32  O         -3.3950    3.5270   -2.6260 O.2    20  ILE20      -0.2715
     33  N         -4.2860    5.3520   -3.6550 N.am   21  TRP21      -0.1941
     34  CA        -4.5320    4.7740   -5.0040 C.3    21  TRP21       0.1982
     35  CB        -5.9180    4.2520   -5.1860 C.3    21  TRP21       0.0394
     36  CG        -6.1830    3.4440   -6.3980 C.3    21  TRP21       0.0475
     37  CD1       -6.5530    3.9940   -7.5750 C.3    21  TRP21       0.1166
     38  NE1       -6.7950    2.9250   -8.4560 N.pl3  21  TRP21      -0.2376
     39  CE2       -6.5250    1.7210   -7.8750 C.ar   21  TRP21       0.0614
     40  CZ2       -6.5900    0.4160   -8.3270 C.ar   21  TRP21       0.0158
     41  CH2       -6.3030   -0.7230   -7.4870 C.ar   21  TRP21       0.0013
     42  CZ3       -5.7700   -0.4130   -6.2280 C.ar   21  TRP21      -0.0002
     43  CE3       -5.6490    0.9570   -5.7980 C.ar   21  TRP21      -0.0030
     44  CD2       -6.0710    2.0140   -6.5550 C.ar   21  TRP21      -0.0059
     45  C         -4.0910    5.7090   -6.1000 C.2    21  TRP21       0.3842
     46  O         -4.4160    6.9060   -5.9990 O.co2  21  TRP21      -0.2437
     47  OXT       -3.3120    5.2700   -6.9670 O.co2  21  TRP21      -0.2437
@<TRIPOS>BOND
     1    40    41   ar
     2    40    39   ar
     3    41    42   ar
     4    39    38    1
     5    39    44   ar
     6    42    43   ar
     7    38    37    1
     8    43    44   ar
     9    44    36    1
    10    37    36    1
    11    36    35    1
    12    47    45   ar
    13     5     4    1
    14    35    34    1
    15    45    34    1
    16    45    46   ar
    17    34    33    1
    18     8     7    2
    19     4     6    1
    20     4     3    1
    21     2     3    1
    22     2     1    1
    23     2     7    1
    24     7     9   am
    25    33    31   am
    26    32    31    2
    27    31    26    1
    28     9    10    1
    29    10    11    1
    30    10    15    1
    31    26    27    1
    32    26    25    1
    33    11    12    1
    34    13    12   ar
    35    27    29    1
    36    27    28    1
    37    29    30    1
    38    16    15    2
    39    15    17   am
    40    12    14   ar
    41    25    23   am
    42    17    18    1
    43    23    24    2
    44    23    18    1
    45    18    19    1
    46    19    21    1
    47    19    20    1
    48    21    22    1
