@<TRIPOS>MOLECULE
../ET1/ET1_17-21_50CONFORMERS_NOBACKBONE.pdb
 26 23 0 0 0
SMALL
GASTEIGER

@<TRIPOS>ATOM
      1  CB        -6.4370   -1.5800   -0.4890 C.3    17  LEU17       0.0000
      2  CG        -7.7290   -2.3240   -0.5840 C.3    17  LEU17       0.0000
      3  CD1       -7.5190   -3.3320   -1.7540 C.3    17  LEU17       0.0000
      4  CD2       -8.1240   -3.1540    0.6640 C.3    17  LEU17       0.0000
      5  CB        -9.6890    1.3370    0.5940 C.3    18  ASP18       0.1258
      6  CG       -11.0150    2.0030    0.9100 C.2    18  ASP18       0.3654
      7  OD1      -11.6810    2.5280   -0.0420 O.co2  18  ASP18      -0.2456
      8  OD2      -11.3830    1.9480    2.1450 O.co2  18  ASP18      -0.2456
      9  CB        -5.7270    4.5050    2.6200 C.3    19  ILE19       0.0000
     10  CG2       -4.9760    5.7330    3.0740 C.3    19  ILE19       0.0000
     11  CG1       -6.3620    3.8720    3.8200 C.3    19  ILE19       0.0000
     12  CD1       -5.3830    3.4190    4.9140 C.3    19  ILE19       0.0000
     13  CB        -2.8510    5.7340   -1.3230 C.3    20  ILE20       0.0000
     14  CG2       -2.6770    7.0390   -0.5840 C.3    20  ILE20       0.0000
     15  CG1       -2.0230    4.6170   -0.7130 C.3    20  ILE20       0.0000
     16  CD1       -0.5320    4.6370   -1.0720 C.3    20  ILE20       0.0000
     17  CB        -6.6140    3.3930   -4.9190 C.3    21  TRP21       0.0066
     18  CG        -7.1090    2.6790   -6.1830 C.3    21  TRP21       0.0452
     19  CD1       -6.9010    1.3600   -6.4540 C.3    21  TRP21       0.1165
     20  NE1       -7.6490    0.9550   -7.5090 N.pl3  21  TRP21      -0.2376
     21  CE2       -8.5210    1.9570   -7.8340 C.ar   21  TRP21       0.0614
     22  CZ2       -9.5440    1.9900   -8.7760 C.ar   21  TRP21       0.0158
     23  CH2      -10.2610    3.1960   -8.9890 C.ar   21  TRP21       0.0013
     24  CZ3       -9.9540    4.3430   -8.2600 C.ar   21  TRP21      -0.0002
     25  CE3       -8.8810    4.2500   -7.3270 C.ar   21  TRP21      -0.0030
     26  CD2       -8.1390    3.0640   -7.1040 C.ar   21  TRP21      -0.0059
@<TRIPOS>BOND
     1    22    23   ar
     2    22    21   ar
     3    23    24   ar
     4    21    20    1
     5    21    26   ar
     6    24    25   ar
     7    20    19    1
     8    25    26   ar
     9    26    18    1
    10    19    18    1
    11    18    17    1
    12     3     2    1
    13     2     4    1
    14     2     1    1
    15     5     6    1
    16     7     6   ar
    17    13    15    1
    18    13    14    1
    19    15    16    1
    20     6     8   ar
    21     9    11    1
    22     9    10    1
    23    11    12    1
@<TRIPOS>MOLECULE
HTS1204-03362316-01
 44 47 0 0 0
SMALL
USER_CHARGES

@<TRIPOS>ATOM
      1 C1         -7.8445    3.4740   -6.2457 C.ar    1  UNK11      -0.0199
      2 N1         -8.4740    5.2586   -7.4324 N.ar    1  UNK11      -0.3494
      3 C2         -5.4313    1.5331    1.3040 C.2     1  UNK11       0.3028
      4 C3         -7.6946    4.8401   -6.3864 C.ar    1  UNK11       0.0086
      5 C4         -4.8369    3.5899   -5.0139 C.2     1  UNK11       0.2342
      6 C5         -8.8012    3.0678   -7.2390 C.ar    1  UNK11       0.0031
      7 C6         -6.5115    1.8516   -2.1707 C.2     1  UNK11       0.2340
      8 C7         -9.1732    4.1993   -7.9677 C.ar    1  UNK11       0.0491
      9 N2         -5.4632    1.8010   -0.0300 N.am    1  UNK11      -0.2879
     10 N3         -5.0788    2.6219    2.1034 N.am    1  UNK11      -0.2856
     11 N4         -5.7746    2.0888   -3.3098 N.am    1  UNK11      -0.3022
     12 N5         -3.8814    4.2707   -4.2976 N.am    1  UNK11      -0.3054
     13 C8         -6.1347    3.1142   -4.3021 C.3     1  UNK11       0.1034
     14 C9         -5.8346    0.9071   -1.1409 C.3     1  UNK11       0.1011
     15 C10        -3.7230    4.3155   -2.8255 C.3     1  UNK11       0.0680
     16 C11        -7.1647    2.5327   -5.2852 C.3     1  UNK11       0.0013
     17 C12        -3.1905    3.0129   -2.1528 C.2     1  UNK11       0.0623
     18 C13        -2.8822    5.5142   -2.3687 C.3     1  UNK11       0.0133
     19 O1         -5.7088    0.4415    1.7986 O.2     1  UNK11      -0.2526
     20 O2         -7.6003    2.3953   -1.9751 O.2     1  UNK11      -0.2738
     21 O3         -4.6462    3.4450   -6.2250 O.2     1  UNK11      -0.2738
     22 N6         -0.9775    4.5601   -3.6150 N.ar    1  UNK11      -0.2598
     23 O4         -3.1867    1.9742   -2.8818 O.co2   1  UNK11      -0.5479
     24 C14        -6.7522   -0.2839   -0.8142 C.3     1  UNK11      -0.0236
     25 C15        -1.4214    5.5119   -2.7642 C.ar    1  UNK11       0.0434
     26 O5         -3.0738    3.0732   -0.8911 O.co2   1  UNK11      -0.5479
     27 C16        -8.5330    6.6163   -7.9224 C.3     1  UNK11       0.0119
     28 C17        -4.8685    2.3571    3.5271 C.3     1  UNK11       0.0161
     29 C18        -4.9997    4.0079    1.6310 C.3     1  UNK11       0.0161
     30 C19       -10.0874    4.1347   -9.0334 C.ar    1  UNK11      -0.0376
     31 C20        -9.3709    1.8239   -7.5866 C.ar    1  UNK11      -0.0523
     32 C21        -6.8554   -1.3275   -1.9556 C.3     1  UNK11      -0.0446
     33 C22         0.3415    4.5325   -3.8994 C.ar    1  UNK11       0.0279
     34 C23        -0.5765    6.4972   -2.2562 C.ar    1  UNK11      -0.0403
     35 C24        -7.8621   -0.9413   -3.0392 C.3     1  UNK11      -0.0626
     36 C25        -7.2474   -2.6923   -1.3777 C.3     1  UNK11      -0.0626
     37 C26        -4.7777    3.5840    4.4370 C.3     1  UNK11      -0.0371
     38 C27        -6.2402    4.8285    1.9929 C.3     1  UNK11      -0.0371
     39 C28       -10.2843    1.7477   -8.6430 C.ar    1  UNK11      -0.0611
     40 C29       -10.6350    2.8893   -9.3567 C.ar    1  UNK11      -0.0598
     41 C30         1.2476    5.4642   -3.4249 C.ar    1  UNK11      -0.0436
     42 C31         0.7725    6.4754   -2.5990 C.ar    1  UNK11      -0.0586
     43 C32        -6.0648    4.4063    4.5348 C.3     1  UNK11      -0.0516
     44 C33        -6.9466    4.4397    3.2896 C.3     1  UNK11      -0.0516
@<TRIPOS>BOND
     1     2     4   ar
     2     3     9   am
     3     1     4   ar
     4     5    13    1
     5     1     6   ar
     6     7    11   am
     7     6     8   ar
     8     9    14    1
     9     3    10   am
    10    11    13    1
    11     5    12   am
    12    13    16    1
    13     7    14    1
    14    12    15    1
    15     1    16    1
    16    15    17    1
    17    15    18    1
    18     3    19    2
    19     7    20    2
    20     5    21    2
    21    22    25   ar
    22    17    23   ar
    23    14    24    1
    24    18    25    1
    25    17    26   ar
    26     2    27    1
    27    10    28    1
    28    10    29    1
    29     8    30   ar
    30     6    31   ar
    31    24    32    1
    32    22    33   ar
    33    25    34   ar
    34    32    35    1
    35    32    36    1
    36    28    37    1
    37    29    38    1
    38    31    39   ar
    39    39    40   ar
    40    41    42   ar
    41    34    42   ar
    42    37    43    1
    43    38    44    1
    44     2     8   ar
    45    30    40   ar
    46    33    41   ar
    47    43    44    1
@<TRIPOS>MOLECULE
../ET1/ET1_17-21_50CONFORMERS.pdb
 47 48 0 0 0
SMALL
GASTEIGER

@<TRIPOS>ATOM
      1  N         -4.8640    0.0950   -1.5660 N.3    17  LEU17      -0.1231
      2  CA        -6.2110   -0.4950   -1.6480 C.3    17  LEU17       0.1693
      3  CB        -6.4370   -1.5800   -0.4890 C.3    17  LEU17       0.0284
      4  CG        -7.7290   -2.3240   -0.5840 C.3    17  LEU17       0.0019
      5  CD1       -7.5190   -3.3320   -1.7540 C.3    17  LEU17       0.0001
      6  CD2       -8.1240   -3.1540    0.6640 C.3    17  LEU17       0.0001
      7  C         -7.3380    0.5140   -1.6640 C.2    17  LEU17       0.2592
      8  O         -8.1150    0.5180   -2.6330 O.2    17  LEU17      -0.2718
      9  N         -7.5490    1.2830   -0.5870 N.am   18  ASP18      -0.1960
     10  CA        -8.7710    2.1160   -0.4280 C.3    18  ASP18       0.1840
     11  CB        -9.6890    1.3370    0.5940 C.3    18  ASP18       0.1450
     12  CG       -11.0150    2.0030    0.9100 C.2    18  ASP18       0.3671
     13  OD1      -11.6810    2.5280   -0.0420 O.co2  18  ASP18      -0.2456
     14  OD2      -11.3830    1.9480    2.1450 O.co2  18  ASP18      -0.2456
     15  C         -8.4150    3.5200    0.1100 C.2    18  ASP18       0.2622
     16  O         -8.9730    4.5660   -0.2410 O.2    18  ASP18      -0.2715
     17  N         -7.3620    3.5650    0.9550 N.am   19  ILE19      -0.1963
     18  CA        -6.6980    4.7620    1.4650 C.3    19  ILE19       0.1727
     19  CB        -5.7270    4.5050    2.6200 C.3    19  ILE19       0.0290
     20  CG2       -4.9760    5.7330    3.0740 C.3    19  ILE19       0.0023
     21  CG1       -6.3620    3.8720    3.8200 C.3    19  ILE19       0.0022
     22  CD1       -5.3830    3.4190    4.9140 C.3    19  ILE19       0.0001
     23  C         -5.8840    5.5580    0.3470 C.2    19  ILE19       0.2616
     24  O         -6.1000    6.7600    0.1560 O.2    19  ILE19      -0.2715
     25  N         -4.9860    4.9120   -0.3880 N.am   20  ILE20      -0.1963
     26  CA        -4.3890    5.4830   -1.5810 C.3    20  ILE20       0.1727
     27  CB        -2.8510    5.7340   -1.3230 C.3    20  ILE20       0.0290
     28  CG2       -2.6770    7.0390   -0.5840 C.3    20  ILE20       0.0023
     29  CG1       -2.0230    4.6170   -0.7130 C.3    20  ILE20       0.0022
     30  CD1       -0.5320    4.6370   -1.0720 C.3    20  ILE20       0.0001
     31  C         -4.5570    4.5110   -2.7290 C.2    20  ILE20       0.2617
     32  O         -4.3120    3.2810   -2.6410 O.2    20  ILE20      -0.2715
     33  N         -5.0390    4.9920   -3.8660 N.am   21  TRP21      -0.1941
     34  CA        -5.3540    4.2160   -5.0990 C.3    21  TRP21       0.1982
     35  CB        -6.6140    3.3930   -4.9190 C.3    21  TRP21       0.0394
     36  CG        -7.1090    2.6790   -6.1830 C.3    21  TRP21       0.0475
     37  CD1       -6.9010    1.3600   -6.4540 C.3    21  TRP21       0.1166
     38  NE1       -7.6490    0.9550   -7.5090 N.pl3  21  TRP21      -0.2376
     39  CE2       -8.5210    1.9570   -7.8340 C.ar   21  TRP21       0.0614
     40  CZ2       -9.5440    1.9900   -8.7760 C.ar   21  TRP21       0.0158
     41  CH2      -10.2610    3.1960   -8.9890 C.ar   21  TRP21       0.0013
     42  CZ3       -9.9540    4.3430   -8.2600 C.ar   21  TRP21      -0.0002
     43  CE3       -8.8810    4.2500   -7.3270 C.ar   21  TRP21      -0.0030
     44  CD2       -8.1390    3.0640   -7.1040 C.ar   21  TRP21      -0.0059
     45  C         -5.3760    5.0420   -6.4070 C.2    21  TRP21       0.3842
     46  O         -5.8420    6.2330   -6.3310 O.co2  21  TRP21      -0.2437
     47  OXT       -4.7220    4.5940   -7.3310 O.co2  21  TRP21      -0.2437
@<TRIPOS>BOND
     1    40    41   ar
     2    40    39   ar
     3    41    42   ar
     4    39    38    1
     5    39    44   ar
     6    42    43   ar
     7    38    37    1
     8    43    44   ar
     9    44    36    1
    10    37    36    1
    11    36    35    1
    12    47    45   ar
    13     5     4    1
    14    35    34    1
    15    45    34    1
    16    45    46   ar
    17    34    33    1
    18     8     7    2
    19     4     6    1
    20     4     3    1
    21     2     3    1
    22     2     1    1
    23     2     7    1
    24     7     9   am
    25    33    31   am
    26    32    31    2
    27    31    26    1
    28     9    10    1
    29    10    11    1
    30    10    15    1
    31    26    27    1
    32    26    25    1
    33    11    12    1
    34    13    12   ar
    35    27    29    1
    36    27    28    1
    37    29    30    1
    38    16    15    2
    39    15    17   am
    40    12    14   ar
    41    25    23   am
    42    17    18    1
    43    23    24    2
    44    23    18    1
    45    18    19    1
    46    19    21    1
    47    19    20    1
    48    21    22    1
