@<TRIPOS>MOLECULE
../ET1/ET1_17-21_50CONFORMERS_NOBACKBONE.pdb
 26 23 0 0 0
SMALL
GASTEIGER

@<TRIPOS>ATOM
      1  CB        -6.3910   -1.9050   -1.9340 C.3    17  LEU17       0.0000
      2  CG        -7.7230   -2.6120   -2.2650 C.3    17  LEU17       0.0000
      3  CD1       -8.2730   -2.2630   -3.6560 C.3    17  LEU17       0.0000
      4  CD2       -7.7160   -4.1570   -2.1830 C.3    17  LEU17       0.0000
      5  CB        -9.2330   -0.0320    1.6400 C.3    18  ASP18       0.1258
      6  CG       -10.4980    0.4460    2.4050 C.2    18  ASP18       0.3654
      7  OD1      -10.5950    0.2460    3.6430 O.co2  18  ASP18      -0.2456
      8  OD2      -11.3710    0.9240    1.6290 O.co2  18  ASP18      -0.2456
      9  CB        -5.7490    3.0740    3.3650 C.3    19  ILE19       0.0000
     10  CG2       -5.2510    4.1420    4.3270 C.3    19  ILE19       0.0000
     11  CG1       -6.1550    1.8390    4.1720 C.3    19  ILE19       0.0000
     12  CD1       -7.4850    2.0290    4.9680 C.3    19  ILE19       0.0000
     13  CB        -3.2800    5.5690   -0.0490 C.3    20  ILE20       0.0000
     14  CG2       -3.1480    5.8930    1.4700 C.3    20  ILE20       0.0000
     15  CG1       -2.1370    4.6340   -0.4900 C.3    20  ILE20       0.0000
     16  CD1       -0.6390    5.0750   -0.2490 C.3    20  ILE20       0.0000
     17  CB        -6.3680    6.2230   -4.3030 C.3    21  TRP21       0.0066
     18  CG        -7.3580    5.9950   -3.2070 C.3    21  TRP21       0.0452
     19  CD1       -7.7570    4.8500   -2.5760 C.3    21  TRP21       0.1165
     20  NE1       -8.5940    5.1820   -1.5620 N.pl3  21  TRP21      -0.2376
     21  CE2       -8.8900    6.5050   -1.5260 C.ar   21  TRP21       0.0614
     22  CZ2       -9.6920    7.2470   -0.6340 C.ar   21  TRP21       0.0158
     23  CH2       -9.7970    8.6640   -0.7850 C.ar   21  TRP21       0.0013
     24  CZ3       -9.2120    9.2710   -1.9250 C.ar   21  TRP21      -0.0002
     25  CE3       -8.3150    8.4870   -2.7810 C.ar   21  TRP21      -0.0030
     26  CD2       -8.0900    7.0900   -2.5680 C.ar   21  TRP21      -0.0059
@<TRIPOS>BOND
     1    22    23   ar
     2    22    21   ar
     3    23    24   ar
     4    21    20    1
     5    21    26   ar
     6    24    25   ar
     7    20    19    1
     8    25    26   ar
     9    26    18    1
    10    19    18    1
    11    18    17    1
    12     3     2    1
    13     2     4    1
    14     2     1    1
    15     5     6    1
    16     7     6   ar
    17    13    15    1
    18    13    14    1
    19    15    16    1
    20     6     8   ar
    21     9    11    1
    22     9    10    1
    23    11    12    1
@<TRIPOS>MOLECULE
9843631
 28 31 0 0 0
SMALL
GASTEIGER

@<TRIPOS>ATOM
      1 S          -8.0541    6.3325    1.8291 S.O2    1  LIG11       0.0752
      2 O          -8.0451    3.3312   -0.1002 O.2     1  LIG11      -0.3377
      3 O          -7.9507    5.9415    3.2213 O.2     1  LIG11      -0.1499
      4 O          -7.7544    7.6929    1.4386 O.2     1  LIG11      -0.1499
      5 O          -8.4121   11.2720   -3.8802 O.2     1  LIG11      -0.4436
      6 N          -7.0401    5.3173    0.9112 N.pl3   1  LIG11      -0.1831
      7 N          -8.3289    2.0232    0.2424 N.ar    1  LIG11      -0.0810
      8 N          -6.5380   10.0391   -4.1418 N.ar    1  LIG11      -0.2175
      9 C          -9.7064    5.9256    1.2647 C.ar    1  LIG11       0.1162
     10 C         -10.2644    6.4556    0.0830 C.ar    1  LIG11       0.0087
     11 C          -9.5924    7.3860   -0.8353 C.ar    1  LIG11      -0.0160
     12 C         -10.4647    5.0770    2.0950 C.ar    1  LIG11      -0.0345
     13 C          -7.4225    3.9510    0.9373 C.ar    1  LIG11       0.2399
     14 C         -11.5882    6.0815   -0.2351 C.ar    1  LIG11      -0.0521
     15 C          -7.1901    3.0373    1.9428 C.ar    1  LIG11       0.0350
     16 C          -8.6196    6.9526   -1.7461 C.ar    1  LIG11      -0.0533
     17 C          -9.9675    8.7395   -0.8603 C.ar    1  LIG11      -0.0533
     18 C         -11.7687    4.7283    1.7516 C.ar    1  LIG11      -0.0599
     19 C         -12.3303    5.2293    0.5849 C.ar    1  LIG11      -0.0611
     20 C          -8.3673    9.2125   -2.6286 C.ar    1  LIG11       0.0369
     21 C          -7.8151    1.8508    1.4659 C.ar    1  LIG11       0.0854
     22 C          -7.9957    7.8610   -2.6121 C.ar    1  LIG11      -0.0489
     23 C          -9.3703    9.6387   -1.7500 C.ar    1  LIG11      -0.0489
     24 C          -6.4456    3.2103    3.2118 C.3     1  LIG11      -0.0330
     25 C          -7.9182    0.5333    2.1391 C.3     1  LIG11      -0.0188
     26 C          -7.7127   10.1385   -3.5466 C.ar    1  LIG11       0.2271
     27 C          -7.5918   11.9274   -4.7463 C.ar    1  LIG11       0.1125
     28 C          -6.4474   11.1857   -4.8886 C.ar    1  LIG11       0.0663
@<TRIPOS>BOND
     1     1     3    2
     2     1     4    2
     3     1     6    1
     4     1     9    1
     5     2     7   ar
     6     2    13   ar
     7     5    26   ar
     8     5    27   ar
     9     6    13    1
    10     7    21   ar
    11     8    26   ar
    12     8    28   ar
    13     9    10   ar
    14     9    12   ar
    15    10    11    1
    16    10    14   ar
    17    11    16   ar
    18    11    17   ar
    19    12    18   ar
    20    13    15   ar
    21    14    19   ar
    22    15    21   ar
    23    15    24    1
    24    16    22   ar
    25    17    23   ar
    26    18    19   ar
    27    20    22   ar
    28    20    23   ar
    29    20    26    1
    30    21    25    1
    31    27    28   ar
@<TRIPOS>MOLECULE
../ET1/ET1_17-21_50CONFORMERS.pdb
 47 48 0 0 0
SMALL
GASTEIGER

@<TRIPOS>ATOM
      1  N         -4.9640    0.1120   -1.6680 N.3    17  LEU17      -0.1231
      2  CA        -6.2390   -0.4320   -2.1890 C.3    17  LEU17       0.1693
      3  CB        -6.3910   -1.9050   -1.9340 C.3    17  LEU17       0.0284
      4  CG        -7.7230   -2.6120   -2.2650 C.3    17  LEU17       0.0019
      5  CD1       -8.2730   -2.2630   -3.6560 C.3    17  LEU17       0.0001
      6  CD2       -7.7160   -4.1570   -2.1830 C.3    17  LEU17       0.0001
      7  C         -7.3800    0.4070   -1.5850 C.2    17  LEU17       0.2592
      8  O         -7.9120    1.2710   -2.2900 O.2    17  LEU17      -0.2718
      9  N         -7.7550    0.1670   -0.3430 N.am   18  ASP18      -0.1960
     10  CA        -8.8100    0.8290    0.3870 C.3    18  ASP18       0.1840
     11  CB        -9.2330   -0.0320    1.6400 C.3    18  ASP18       0.1450
     12  CG       -10.4980    0.4460    2.4050 C.2    18  ASP18       0.3671
     13  OD1      -10.5950    0.2460    3.6430 O.co2  18  ASP18      -0.2456
     14  OD2      -11.3710    0.9240    1.6290 O.co2  18  ASP18      -0.2456
     15  C         -8.4130    2.3140    0.8710 C.2    18  ASP18       0.2622
     16  O         -9.1560    3.2690    0.6980 O.2    18  ASP18      -0.2715
     17  N         -7.2450    2.3300    1.6170 N.am   19  ILE19      -0.1963
     18  CA        -6.8060    3.4950    2.3580 C.3    19  ILE19       0.1727
     19  CB        -5.7490    3.0740    3.3650 C.3    19  ILE19       0.0290
     20  CG2       -5.2510    4.1420    4.3270 C.3    19  ILE19       0.0023
     21  CG1       -6.1550    1.8390    4.1720 C.3    19  ILE19       0.0022
     22  CD1       -7.4850    2.0290    4.9680 C.3    19  ILE19       0.0001
     23  C         -6.2620    4.6560    1.4180 C.2    19  ILE19       0.2616
     24  O         -6.6680    5.8080    1.5430 O.2    19  ILE19      -0.2715
     25  N         -5.3940    4.3010    0.4200 N.am   20  ILE20      -0.1963
     26  CA        -4.7490    5.1850   -0.4700 C.3    20  ILE20       0.1727
     27  CB        -3.2800    5.5690   -0.0490 C.3    20  ILE20       0.0290
     28  CG2       -3.1480    5.8930    1.4700 C.3    20  ILE20       0.0023
     29  CG1       -2.1370    4.6340   -0.4900 C.3    20  ILE20       0.0022
     30  CD1       -0.6390    5.0750   -0.2490 C.3    20  ILE20       0.0001
     31  C         -4.7650    4.7450   -1.9840 C.2    20  ILE20       0.2617
     32  O         -4.9690    3.5790   -2.2750 O.2    20  ILE20      -0.2715
     33  N         -4.4580    5.6790   -2.8610 N.am   21  TRP21      -0.1941
     34  CA        -4.9420    5.6080   -4.2670 C.3    21  TRP21       0.1982
     35  CB        -6.3680    6.2230   -4.3030 C.3    21  TRP21       0.0394
     36  CG        -7.3580    5.9950   -3.2070 C.3    21  TRP21       0.0475
     37  CD1       -7.7570    4.8500   -2.5760 C.3    21  TRP21       0.1166
     38  NE1       -8.5940    5.1820   -1.5620 N.pl3  21  TRP21      -0.2376
     39  CE2       -8.8900    6.5050   -1.5260 C.ar   21  TRP21       0.0614
     40  CZ2       -9.6920    7.2470   -0.6340 C.ar   21  TRP21       0.0158
     41  CH2       -9.7970    8.6640   -0.7850 C.ar   21  TRP21       0.0013
     42  CZ3       -9.2120    9.2710   -1.9250 C.ar   21  TRP21      -0.0002
     43  CE3       -8.3150    8.4870   -2.7810 C.ar   21  TRP21      -0.0030
     44  CD2       -8.0900    7.0900   -2.5680 C.ar   21  TRP21      -0.0059
     45  C         -4.0680    6.2830   -5.3280 C.2    21  TRP21       0.3842
     46  O         -3.1480    7.0600   -4.9760 O.co2  21  TRP21      -0.2437
     47  OXT       -4.2370    6.0120   -6.5200 O.co2  21  TRP21      -0.2437
@<TRIPOS>BOND
     1    40    41   ar
     2    40    39   ar
     3    41    42   ar
     4    39    38    1
     5    39    44   ar
     6    42    43   ar
     7    38    37    1
     8    43    44   ar
     9    44    36    1
    10    37    36    1
    11    36    35    1
    12    47    45   ar
    13     5     4    1
    14    35    34    1
    15    45    34    1
    16    45    46   ar
    17    34    33    1
    18     8     7    2
    19     4     6    1
    20     4     3    1
    21     2     3    1
    22     2     1    1
    23     2     7    1
    24     7     9   am
    25    33    31   am
    26    32    31    2
    27    31    26    1
    28     9    10    1
    29    10    11    1
    30    10    15    1
    31    26    27    1
    32    26    25    1
    33    11    12    1
    34    13    12   ar
    35    27    29    1
    36    27    28    1
    37    29    30    1
    38    16    15    2
    39    15    17   am
    40    12    14   ar
    41    25    23   am
    42    17    18    1
    43    23    24    2
    44    23    18    1
    45    18    19    1
    46    19    21    1
    47    19    20    1
    48    21    22    1
