@<TRIPOS>MOLECULE
../ET1/ET1_17-21_50CONFORMERS_NOBACKBONE.pdb
 26 23 0 0 0
SMALL
GASTEIGER

@<TRIPOS>ATOM
      1  CB        -6.0380   -1.5180   -0.0370 C.3    17  LEU17       0.0000
      2  CG        -7.1840   -2.4290   -0.2350 C.3    17  LEU17       0.0000
      3  CD1       -6.7970   -3.5870   -1.1730 C.3    17  LEU17       0.0000
      4  CD2       -7.8660   -3.1100    0.9420 C.3    17  LEU17       0.0000
      5  CB        -9.2220    2.1420    0.8650 C.3    18  ASP18       0.1258
      6  CG       -10.4510    3.0160    0.7920 C.2    18  ASP18       0.3654
      7  OD1      -11.1710    2.9190   -0.1710 O.co2  18  ASP18      -0.2456
      8  OD2      -10.5970    3.8410    1.7050 O.co2  18  ASP18      -0.2456
      9  CB        -5.7050    5.4320    2.5820 C.3    19  ILE19       0.0000
     10  CG2       -4.5690    4.4470    2.6960 C.3    19  ILE19       0.0000
     11  CG1       -5.3120    6.7960    3.2120 C.3    19  ILE19       0.0000
     12  CD1       -6.5720    7.7280    3.3490 C.3    19  ILE19       0.0000
     13  CB        -2.1810    5.4270   -1.2910 C.3    20  ILE20       0.0000
     14  CG2       -1.7020    6.8010   -0.7900 C.3    20  ILE20       0.0000
     15  CG1       -1.6700    4.3770   -0.2680 C.3    20  ILE20       0.0000
     16  CD1       -0.2050    4.1190   -0.3350 C.3    20  ILE20       0.0000
     17  CB        -6.5390    3.3040   -4.4160 C.3    21  TRP21       0.0066
     18  CG        -7.2490    2.3830   -5.4230 C.3    21  TRP21       0.0452
     19  CD1       -8.3550    2.7960   -6.1520 C.3    21  TRP21       0.1165
     20  NE1       -8.8630    1.7830   -6.9380 N.pl3  21  TRP21      -0.2376
     21  CE2       -8.0920    0.6800   -6.7530 C.ar   21  TRP21       0.0614
     22  CZ2       -8.2090   -0.5880   -7.3570 C.ar   21  TRP21       0.0158
     23  CH2       -7.2400   -1.5830   -7.0600 C.ar   21  TRP21       0.0013
     24  CZ3       -6.2600   -1.2970   -6.0270 C.ar   21  TRP21      -0.0002
     25  CE3       -6.2230   -0.0490   -5.4100 C.ar   21  TRP21      -0.0030
     26  CD2       -7.0720    0.9930   -5.8380 C.ar   21  TRP21      -0.0059
@<TRIPOS>BOND
     1    22    23   ar
     2    22    21   ar
     3    23    24   ar
     4    21    20    1
     5    21    26   ar
     6    24    25   ar
     7    20    19    1
     8    25    26   ar
     9    26    18    1
    10    19    18    1
    11    18    17    1
    12     3     2    1
    13     2     4    1
    14     2     1    1
    15     5     6    1
    16     7     6   ar
    17    13    15    1
    18    13    14    1
    19    15    16    1
    20     6     8   ar
    21     9    11    1
    22     9    10    1
    23    11    12    1
@<TRIPOS>MOLECULE
02228316B
 42 46 0 0 0
SMALL
GASTEIGER

@<TRIPOS>ATOM
      1 C          -2.2590    4.5731   -0.3660 C.3     1  LIG11       0.2491
      2 C          -2.6035    3.1529   -0.7702 C.2     1  LIG11       0.3556
      3 N          -3.1469    4.8321    0.7961 N.2     1  LIG11      -0.0687
      4 C          -0.7935    4.7708    0.0322 C.3     1  LIG11       0.0059
      5 C          -2.5580    5.5877   -1.4718 C.3     1  LIG11       0.0059
      6 N          -3.7296    2.8336   -0.0616 N.am    1  LIG11      -0.1529
      7 O          -1.9735    2.4401   -1.5357 O.2     1  LIG11      -0.2422
      8 C          -3.9252    3.7964    0.8619 C.2     1  LIG11       0.2916
      9 C          -0.2616    5.8525   -0.9057 C.3     1  LIG11      -0.0481
     10 C          -1.4923    6.6581   -1.2849 C.3     1  LIG11      -0.0481
     11 C          -4.3169    1.5064   -0.0958 C.3     1  LIG11       0.1137
     12 C          -5.0034    3.6522    1.9126 C.3     1  LIG11       0.0509
     13 C          -4.8937    1.1293   -1.4373 C.ar    1  LIG11      -0.0073
     14 C          -5.0339    4.7507    2.9747 C.3     1  LIG11      -0.0424
     15 C          -6.0288    1.7542   -1.9599 C.ar    1  LIG11      -0.0491
     16 C          -4.3045    0.1232   -2.1879 C.ar    1  LIG11      -0.0544
     17 C          -5.5932    6.0784    2.4598 C.3     1  LIG11      -0.0554
     18 C          -6.6134    1.3502   -3.1932 C.ar    1  LIG11      -0.0138
     19 C          -4.8634   -0.2640   -3.4072 C.ar    1  LIG11      -0.0533
     20 C          -5.6903    7.1023    3.5808 C.3     1  LIG11      -0.0653
     21 C          -6.0472    0.2742   -3.9335 C.ar    1  LIG11      -0.0106
     22 C          -7.8155    2.1618   -3.6434 C.3     1  LIG11       0.0732
     23 C          -6.5833   -0.2520   -5.2328 C.ar    1  LIG11       0.0091
     24 O          -8.9824    1.3860   -3.8767 O.3     1  LIG11      -0.3754
     25 C          -6.8513   -1.6072   -5.5735 C.ar    1  LIG11       0.1162
     26 C          -6.8230    0.6842   -6.2669 C.ar    1  LIG11      -0.0521
     27 C          -9.6168    0.9756   -2.6692 C.3     1  LIG11       0.0453
     28 S          -6.4381   -3.0358   -4.5638 S.O2    1  LIG11       0.0741
     29 C          -7.4523   -1.9433   -6.8116 C.ar    1  LIG11      -0.0345
     30 C          -7.4046    0.3421   -7.4946 C.ar    1  LIG11      -0.0611
     31 C         -10.9690    0.3941   -3.0241 C.3     1  LIG11      -0.0416
     32 N          -4.7939   -3.2944   -4.8864 N.pl3   1  LIG11      -0.1965
     33 O          -6.5252   -2.6652   -3.1664 O.2     1  LIG11      -0.1499
     34 O          -7.1833   -4.1766   -5.0404 O.2     1  LIG11      -0.1499
     35 C          -7.7399   -0.9723   -7.7601 C.ar    1  LIG11      -0.0599
     36 C          -4.2714   -3.1447   -6.1687 C.ar    1  LIG11       0.1837
     37 C          -3.1957   -2.2874   -6.5441 C.ar    1  LIG11       0.0342
     38 N          -4.7262   -3.8354   -7.2152 N.ar    1  LIG11      -0.0614
     39 C          -3.0479   -2.5256   -7.8945 C.ar    1  LIG11       0.1390
     40 C          -2.4370   -1.2996   -5.7445 C.3     1  LIG11      -0.0330
     41 O          -3.9507   -3.4568   -8.2923 O.2     1  LIG11      -0.3578
     42 C          -2.1518   -1.9877   -8.9372 C.3     1  LIG11      -0.0034
@<TRIPOS>BOND
     1     1     5    1
     2     1     4    1
     3     1     2    1
     4     1     3    1
     5     2     6   am
     6     2     7    2
     7     3     8    2
     8     4     9    1
     9     5    10    1
    10     6     8    1
    11     6    11    1
    12     8    12    1
    13     9    10    1
    14    11    13    1
    15    12    14    1
    16    13    15   ar
    17    13    16   ar
    18    14    17    1
    19    15    18   ar
    20    16    19   ar
    21    17    20    1
    22    18    21   ar
    23    18    22    1
    24    19    21   ar
    25    21    23    1
    26    22    24    1
    27    23    26   ar
    28    23    25   ar
    29    24    27    1
    30    25    29   ar
    31    25    28    1
    32    26    30   ar
    33    27    31    1
    34    28    34    2
    35    28    33    2
    36    28    32    1
    37    29    35   ar
    38    30    35   ar
    39    32    36    1
    40    36    37   ar
    41    36    38   ar
    42    37    39   ar
    43    37    40    1
    44    38    41   ar
    45    39    41   ar
    46    39    42    1
@<TRIPOS>MOLECULE
../ET1/ET1_17-21_50CONFORMERS.pdb
 47 48 0 0 0
SMALL
GASTEIGER

@<TRIPOS>ATOM
      1  N         -4.4120    0.0600   -1.0240 N.3    17  LEU17      -0.1231
      2  CA        -5.8150   -0.5190   -1.1630 C.3    17  LEU17       0.1693
      3  CB        -6.0380   -1.5180   -0.0370 C.3    17  LEU17       0.0284
      4  CG        -7.1840   -2.4290   -0.2350 C.3    17  LEU17       0.0019
      5  CD1       -6.7970   -3.5870   -1.1730 C.3    17  LEU17       0.0001
      6  CD2       -7.8660   -3.1100    0.9420 C.3    17  LEU17       0.0001
      7  C         -6.9320    0.5370   -1.3110 C.2    17  LEU17       0.2592
      8  O         -7.7610    0.4630   -2.2150 O.2    17  LEU17      -0.2718
      9  N         -7.1210    1.4070   -0.2900 N.am   18  ASP18      -0.1960
     10  CA        -8.2550    2.3870   -0.2680 C.3    18  ASP18       0.1840
     11  CB        -9.2220    2.1420    0.8650 C.3    18  ASP18       0.1450
     12  CG       -10.4510    3.0160    0.7920 C.2    18  ASP18       0.3671
     13  OD1      -11.1710    2.9190   -0.1710 O.co2  18  ASP18      -0.2456
     14  OD2      -10.5970    3.8410    1.7050 O.co2  18  ASP18      -0.2456
     15  C         -7.7530    3.7960   -0.1690 C.2    18  ASP18       0.2622
     16  O         -8.1350    4.6240   -0.9530 O.2    18  ASP18      -0.2715
     17  N         -6.9590    4.1300    0.8310 N.am   19  ILE19      -0.1963
     18  CA        -6.3530    5.4560    1.1480 C.3    19  ILE19       0.1727
     19  CB        -5.7050    5.4320    2.5820 C.3    19  ILE19       0.0290
     20  CG2       -4.5690    4.4470    2.6960 C.3    19  ILE19       0.0023
     21  CG1       -5.3120    6.7960    3.2120 C.3    19  ILE19       0.0022
     22  CD1       -6.5720    7.7280    3.3490 C.3    19  ILE19       0.0001
     23  C         -5.2830    6.0050    0.1410 C.2    19  ILE19       0.2616
     24  O         -5.0530    7.2120    0.0400 O.2    19  ILE19      -0.2715
     25  N         -4.5780    5.0880   -0.5010 N.am   20  ILE20      -0.1963
     26  CA        -3.7350    5.3890   -1.6400 C.3    20  ILE20       0.1727
     27  CB        -2.1810    5.4270   -1.2910 C.3    20  ILE20       0.0290
     28  CG2       -1.7020    6.8010   -0.7900 C.3    20  ILE20       0.0023
     29  CG1       -1.6700    4.3770   -0.2680 C.3    20  ILE20       0.0022
     30  CD1       -0.2050    4.1190   -0.3350 C.3    20  ILE20       0.0001
     31  C         -4.0940    4.4380   -2.7850 C.2    20  ILE20       0.2617
     32  O         -3.6300    3.2730   -2.7920 O.2    20  ILE20      -0.2715
     33  N         -4.8770    4.9360   -3.7880 N.am   21  TRP21      -0.1941
     34  CA        -5.3760    4.2020   -4.9720 C.3    21  TRP21       0.1982
     35  CB        -6.5390    3.3040   -4.4160 C.3    21  TRP21       0.0394
     36  CG        -7.2490    2.3830   -5.4230 C.3    21  TRP21       0.0475
     37  CD1       -8.3550    2.7960   -6.1520 C.3    21  TRP21       0.1166
     38  NE1       -8.8630    1.7830   -6.9380 N.pl3  21  TRP21      -0.2376
     39  CE2       -8.0920    0.6800   -6.7530 C.ar   21  TRP21       0.0614
     40  CZ2       -8.2090   -0.5880   -7.3570 C.ar   21  TRP21       0.0158
     41  CH2       -7.2400   -1.5830   -7.0600 C.ar   21  TRP21       0.0013
     42  CZ3       -6.2600   -1.2970   -6.0270 C.ar   21  TRP21      -0.0002
     43  CE3       -6.2230   -0.0490   -5.4100 C.ar   21  TRP21      -0.0030
     44  CD2       -7.0720    0.9930   -5.8380 C.ar   21  TRP21      -0.0059
     45  C         -5.7150    5.0760   -6.2070 C.2    21  TRP21       0.3842
     46  O         -6.4530    6.0880   -6.0380 O.co2  21  TRP21      -0.2437
     47  OXT       -5.3280    4.6980   -7.3490 O.co2  21  TRP21      -0.2437
@<TRIPOS>BOND
     1    40    41   ar
     2    40    39   ar
     3    41    42   ar
     4    39    38    1
     5    39    44   ar
     6    42    43   ar
     7    38    37    1
     8    43    44   ar
     9    44    36    1
    10    37    36    1
    11    36    35    1
    12    47    45   ar
    13     5     4    1
    14    35    34    1
    15    45    34    1
    16    45    46   ar
    17    34    33    1
    18     8     7    2
    19     4     6    1
    20     4     3    1
    21     2     3    1
    22     2     1    1
    23     2     7    1
    24     7     9   am
    25    33    31   am
    26    32    31    2
    27    31    26    1
    28     9    10    1
    29    10    11    1
    30    10    15    1
    31    26    27    1
    32    26    25    1
    33    11    12    1
    34    13    12   ar
    35    27    29    1
    36    27    28    1
    37    29    30    1
    38    16    15    2
    39    15    17   am
    40    12    14   ar
    41    25    23   am
    42    17    18    1
    43    23    24    2
    44    23    18    1
    45    18    19    1
    46    19    21    1
    47    19    20    1
    48    21    22    1
