@<TRIPOS>MOLECULE
../ET1/ET1_17-21_50CONFORMERS_NOBACKBONE.pdb
 26 23 0 0 0
SMALL
GASTEIGER

@<TRIPOS>ATOM
      1  CB        -5.4530   -1.5720   -1.0690 C.3    17  LEU17       0.0000
      2  CG        -6.6970   -2.4780   -1.0330 C.3    17  LEU17       0.0000
      3  CD1       -6.9020   -3.5380   -2.1700 C.3    17  LEU17       0.0000
      4  CD2       -6.6500   -3.2760    0.2870 C.3    17  LEU17       0.0000
      5  CB        -8.9870    1.1020   -0.0360 C.3    18  ASP18       0.1258
      6  CG       -10.3760    1.8060    0.1000 C.2    18  ASP18       0.3654
      7  OD1      -11.2340    1.4710   -0.7260 O.co2  18  ASP18      -0.2456
      8  OD2      -10.5620    2.7020    1.0180 O.co2  18  ASP18      -0.2456
      9  CB        -5.7530    3.4900    3.1650 C.3    19  ILE19       0.0000
     10  CG2       -4.9520    4.5830    3.9180 C.3    19  ILE19       0.0000
     11  CG1       -6.8640    2.8460    4.0270 C.3    19  ILE19       0.0000
     12  CD1       -6.2950    2.0740    5.2450 C.3    19  ILE19       0.0000
     13  CB        -2.6100    5.6290   -0.6190 C.3    20  ILE20       0.0000
     14  CG2       -2.4720    6.6900    0.4690 C.3    20  ILE20       0.0000
     15  CG1       -1.6500    4.4070   -0.2650 C.3    20  ILE20       0.0000
     16  CD1       -0.1570    4.7470    0.0440 C.3    20  ILE20       0.0000
     17  CB        -6.1500    3.9150   -4.7040 C.3    21  TRP21       0.0066
     18  CG        -6.5780    2.9800   -5.8100 C.3    21  TRP21       0.0452
     19  CD1       -7.4550    3.2610   -6.7780 C.3    21  TRP21       0.1165
     20  NE1       -7.6110    2.2010   -7.6480 N.pl3  21  TRP21      -0.2376
     21  CE2       -6.8730    1.0990   -7.2020 C.ar   21  TRP21       0.0614
     22  CZ2       -6.8030   -0.2390   -7.6200 C.ar   21  TRP21       0.0158
     23  CH2       -5.9830   -1.1580   -6.9260 C.ar   21  TRP21       0.0013
     24  CZ3       -5.3220   -0.6620   -5.8020 C.ar   21  TRP21      -0.0002
     25  CE3       -5.2770    0.6770   -5.5110 C.ar   21  TRP21      -0.0030
     26  CD2       -6.0860    1.6060   -6.1130 C.ar   21  TRP21      -0.0059
@<TRIPOS>BOND
     1    22    23   ar
     2    22    21   ar
     3    23    24   ar
     4    21    20    1
     5    21    26   ar
     6    24    25   ar
     7    20    19    1
     8    25    26   ar
     9    26    18    1
    10    19    18    1
    11    18    17    1
    12     3     2    1
    13     2     4    1
    14     2     1    1
    15     5     6    1
    16     7     6   ar
    17    13    15    1
    18    13    14    1
    19    15    16    1
    20     6     8   ar
    21     9    11    1
    22     9    10    1
    23    11    12    1
@<TRIPOS>MOLECULE
178103
 37 41 0 0 0
SMALL
GASTEIGER

@<TRIPOS>ATOM
      1 O          -8.6578    4.7308   -5.8691 O.co2   1  LIG11      -0.5495
      2 O          -7.3458    4.0709   -7.5993 O.co2   1  LIG11      -0.5495
      3 O          -1.6513    4.6222   -2.3314 O.3     1  LIG11      -0.4920
      4 O          -6.4864    6.8704   -2.8882 O.3     1  LIG11      -0.4893
      5 O          -4.5469   -2.1294   -5.2150 O.3     1  LIG11      -0.4526
      6 O          -6.0618   -2.8282   -6.9586 O.3     1  LIG11      -0.4526
      7 O          -9.2644    4.7587    0.5183 O.3     1  LIG11      -0.4950
      8 O          -5.1670    9.5431   -2.9527 O.3     1  LIG11      -0.3917
      9 C          -6.7578    3.4021   -5.3870 C.3     1  LIG11       0.0203
     10 C          -6.2740    4.4661   -4.3567 C.3     1  LIG11       0.0218
     11 C          -5.5076    2.7388   -6.0272 C.3     1  LIG11       0.0184
     12 C          -4.8213    4.0954   -4.1624 C.ar    1  LIG11      -0.0320
     13 C          -4.3874    3.1690   -5.1061 C.ar    1  LIG11      -0.0353
     14 C          -7.0425    4.5626   -3.0360 C.ar    1  LIG11       0.0025
     15 C          -5.6932    1.2281   -6.2233 C.ar    1  LIG11      -0.0356
     16 C          -7.6605    4.1441   -6.3788 C.2     1  LIG11       0.0466
     17 C          -3.9339    4.6477   -3.2413 C.ar    1  LIG11      -0.0159
     18 C          -3.0436    2.8150   -5.1671 C.ar    1  LIG11      -0.0542
     19 C          -7.1891    5.8041   -2.3797 C.ar    1  LIG11       0.1278
     20 C          -2.6045    4.2287   -3.2323 C.ar    1  LIG11       0.1208
     21 C          -5.0097    0.2522   -5.4740 C.ar    1  LIG11      -0.0124
     22 C          -2.1619    3.3274   -4.2103 C.ar    1  LIG11      -0.0196
     23 C          -6.5886    0.7917   -7.2344 C.ar    1  LIG11      -0.0543
     24 C          -7.5961    3.4274   -2.4208 C.ar    1  LIG11      -0.0510
     25 C          -5.1877   -1.0784   -5.7986 C.ar    1  LIG11       0.1665
     26 C          -6.7783   -0.5663   -7.5182 C.ar    1  LIG11      -0.0159
     27 C          -7.9206    5.9017   -1.1868 C.ar    1  LIG11       0.0221
     28 C          -8.3315    3.5336   -1.2372 C.ar    1  LIG11      -0.0194
     29 C          -6.0453   -1.4754   -6.7938 C.ar    1  LIG11       0.1662
     30 C          -8.5217    4.7724   -0.6329 C.ar    1  LIG11       0.1236
     31 C          -2.0789    5.4895   -1.2791 C.3     1  LIG11       0.0893
     32 C          -5.0617   -3.2236   -5.9984 C.3     1  LIG11       0.2332
     33 C          -7.1446    8.1395   -2.8198 C.3     1  LIG11       0.1126
     34 C          -1.0526    5.4311   -0.1505 C.3     1  LIG11      -0.0215
     35 C          -6.3425    9.1329   -3.6584 C.3     1  LIG11       0.0783
     36 C          -9.8971    5.9899    0.8488 C.3     1  LIG11       0.0788
     37 C          -1.0919    4.0860    0.5657 C.3     1  LIG11      -0.0622
@<TRIPOS>BOND
     1     1    16   ar
     2     2    16   ar
     3     3    20    1
     4     3    31    1
     5     4    19    1
     6     4    33    1
     7     5    25    1
     8     5    32    1
     9     6    29    1
    10     6    32    1
    11     7    30    1
    12     7    36    1
    13     8    35    1
    14     9    10    1
    15     9    11    1
    16     9    16    1
    17    10    12    1
    18    10    14    1
    19    11    13    1
    20    11    15    1
    21    12    13   ar
    22    12    17   ar
    23    13    18   ar
    24    14    19   ar
    25    14    24   ar
    26    15    21   ar
    27    15    23   ar
    28    17    20   ar
    29    18    22   ar
    30    19    27   ar
    31    20    22   ar
    32    21    25   ar
    33    23    26   ar
    34    24    28   ar
    35    25    29   ar
    36    26    29   ar
    37    27    30   ar
    38    28    30   ar
    39    31    34    1
    40    33    35    1
    41    34    37    1
@<TRIPOS>MOLECULE
../ET1/ET1_17-21_50CONFORMERS.pdb
 47 48 0 0 0
SMALL
GASTEIGER

@<TRIPOS>ATOM
      1  N         -4.1840    0.1700   -2.1080 N.3    17  LEU17      -0.1231
      2  CA        -5.4310   -0.5590   -2.2130 C.3    17  LEU17       0.1693
      3  CB        -5.4530   -1.5720   -1.0690 C.3    17  LEU17       0.0284
      4  CG        -6.6970   -2.4780   -1.0330 C.3    17  LEU17       0.0019
      5  CD1       -6.9020   -3.5380   -2.1700 C.3    17  LEU17       0.0001
      6  CD2       -6.6500   -3.2760    0.2870 C.3    17  LEU17       0.0001
      7  C         -6.6870    0.4050   -2.2250 C.2    17  LEU17       0.2592
      8  O         -7.4180    0.4050   -3.2490 O.2    17  LEU17      -0.2718
      9  N         -6.8100    1.2430   -1.2130 N.am   18  ASP18      -0.1960
     10  CA        -8.0140    1.9860   -0.8630 C.3    18  ASP18       0.1840
     11  CB        -8.9870    1.1020   -0.0360 C.3    18  ASP18       0.1450
     12  CG       -10.3760    1.8060    0.1000 C.2    18  ASP18       0.3671
     13  OD1      -11.2340    1.4710   -0.7260 O.co2  18  ASP18      -0.2456
     14  OD2      -10.5620    2.7020    1.0180 O.co2  18  ASP18      -0.2456
     15  C         -7.6500    3.2210   -0.1030 C.2    18  ASP18       0.2622
     16  O         -8.0810    4.3050   -0.4240 O.2    18  ASP18      -0.2715
     17  N         -6.9110    3.0370    1.0180 N.am   19  ILE19      -0.1963
     18  CA        -6.3970    4.0740    1.8940 C.3    19  ILE19       0.1727
     19  CB        -5.7530    3.4900    3.1650 C.3    19  ILE19       0.0290
     20  CG2       -4.9520    4.5830    3.9180 C.3    19  ILE19       0.0023
     21  CG1       -6.8640    2.8460    4.0270 C.3    19  ILE19       0.0022
     22  CD1       -6.2950    2.0740    5.2450 C.3    19  ILE19       0.0001
     23  C         -5.5560    5.0440    1.0520 C.2    19  ILE19       0.2616
     24  O         -5.7530    6.2870    1.0950 O.2    19  ILE19      -0.2715
     25  N         -4.6380    4.5410    0.2690 N.am   20  ILE20      -0.1963
     26  CA        -4.0580    5.1800   -0.8700 C.3    20  ILE20       0.1727
     27  CB        -2.6100    5.6290   -0.6190 C.3    20  ILE20       0.0290
     28  CG2       -2.4720    6.6900    0.4690 C.3    20  ILE20       0.0023
     29  CG1       -1.6500    4.4070   -0.2650 C.3    20  ILE20       0.0022
     30  CD1       -0.1570    4.7470    0.0440 C.3    20  ILE20       0.0001
     31  C         -4.1510    4.2950   -2.1670 C.2    20  ILE20       0.2617
     32  O         -4.1350    3.0460   -2.0390 O.2    20  ILE20      -0.2715
     33  N         -4.2910    4.9490   -3.3220 N.am   21  TRP21      -0.1941
     34  CA        -4.6580    4.2080   -4.6000 C.3    21  TRP21       0.1982
     35  CB        -6.1500    3.9150   -4.7040 C.3    21  TRP21       0.0394
     36  CG        -6.5780    2.9800   -5.8100 C.3    21  TRP21       0.0475
     37  CD1       -7.4550    3.2610   -6.7780 C.3    21  TRP21       0.1166
     38  NE1       -7.6110    2.2010   -7.6480 N.pl3  21  TRP21      -0.2376
     39  CE2       -6.8730    1.0990   -7.2020 C.ar   21  TRP21       0.0614
     40  CZ2       -6.8030   -0.2390   -7.6200 C.ar   21  TRP21       0.0158
     41  CH2       -5.9830   -1.1580   -6.9260 C.ar   21  TRP21       0.0013
     42  CZ3       -5.3220   -0.6620   -5.8020 C.ar   21  TRP21      -0.0002
     43  CE3       -5.2770    0.6770   -5.5110 C.ar   21  TRP21      -0.0030
     44  CD2       -6.0860    1.6060   -6.1130 C.ar   21  TRP21      -0.0059
     45  C         -4.1390    5.0410   -5.7810 C.2    21  TRP21       0.3842
     46  O         -3.4380    4.4880   -6.6810 O.co2  21  TRP21      -0.2437
     47  OXT       -4.3440    6.2890   -5.8160 O.co2  21  TRP21      -0.2437
@<TRIPOS>BOND
     1    40    41   ar
     2    40    39   ar
     3    41    42   ar
     4    39    38    1
     5    39    44   ar
     6    42    43   ar
     7    38    37    1
     8    43    44   ar
     9    44    36    1
    10    37    36    1
    11    36    35    1
    12    47    45   ar
    13     5     4    1
    14    35    34    1
    15    45    34    1
    16    45    46   ar
    17    34    33    1
    18     8     7    2
    19     4     6    1
    20     4     3    1
    21     2     3    1
    22     2     1    1
    23     2     7    1
    24     7     9   am
    25    33    31   am
    26    32    31    2
    27    31    26    1
    28     9    10    1
    29    10    11    1
    30    10    15    1
    31    26    27    1
    32    26    25    1
    33    11    12    1
    34    13    12   ar
    35    27    29    1
    36    27    28    1
    37    29    30    1
    38    16    15    2
    39    15    17   am
    40    12    14   ar
    41    25    23   am
    42    17    18    1
    43    23    24    2
    44    23    18    1
    45    18    19    1
    46    19    21    1
    47    19    20    1
    48    21    22    1
