@<TRIPOS>MOLECULE
../ET1/ET1_17-21_50CONFORMERS_NOBACKBONE.pdb
 26 23 0 0 0
SMALL
GASTEIGER

@<TRIPOS>ATOM
      1  CB        -6.0910   -1.6180   -1.3980 C.3    17  LEU17       0.0000
      2  CG        -7.1940   -2.5360   -1.9300 C.3    17  LEU17       0.0000
      3  CD1       -6.7940   -3.3700   -3.1490 C.3    17  LEU17       0.0000
      4  CD2       -7.6880   -3.5890   -0.9250 C.3    17  LEU17       0.0000
      5  CB        -9.2050    1.7950   -0.5390 C.3    18  ASP18       0.1258
      6  CG       -10.3200    2.7850   -0.5550 C.2    18  ASP18       0.3654
      7  OD1      -11.0210    2.7300   -1.6150 O.co2  18  ASP18      -0.2456
      8  OD2      -10.4710    3.5410    0.4120 O.co2  18  ASP18      -0.2456
      9  CB        -4.9810    4.1540    2.2170 C.3    19  ILE19       0.0000
     10  CG2       -4.0530    5.3090    2.7190 C.3    19  ILE19       0.0000
     11  CG1       -5.7910    3.4760    3.3290 C.3    19  ILE19       0.0000
     12  CD1       -4.8670    2.8100    4.3570 C.3    19  ILE19       0.0000
     13  CB        -2.0910    5.4810   -1.4650 C.3    20  ILE20       0.0000
     14  CG2       -1.9860    6.7460   -0.5500 C.3    20  ILE20       0.0000
     15  CG1       -1.4960    4.2170   -0.7850 C.3    20  ILE20       0.0000
     16  CD1        0.0110    4.2170   -0.4870 C.3    20  ILE20       0.0000
     17  CB        -5.0110    4.3230   -5.9680 C.3    21  TRP21       0.0066
     18  CG        -5.3960    3.4640   -7.1630 C.3    21  TRP21       0.0452
     19  CD1       -5.6040    3.8300   -8.4930 C.3    21  TRP21       0.1165
     20  NE1       -5.9490    2.6430   -9.2160 N.pl3  21  TRP21      -0.2376
     21  CE2       -5.6830    1.5430   -8.4990 C.ar   21  TRP21       0.0614
     22  CZ2       -5.7540    0.1720   -8.7210 C.ar   21  TRP21       0.0158
     23  CH2       -5.4780   -0.7730   -7.7240 C.ar   21  TRP21       0.0013
     24  CZ3       -5.2550   -0.3200   -6.3820 C.ar   21  TRP21      -0.0002
     25  CE3       -5.1180    1.0670   -6.1140 C.ar   21  TRP21      -0.0030
     26  CD2       -5.3540    2.0190   -7.1840 C.ar   21  TRP21      -0.0059
@<TRIPOS>BOND
     1    22    23   ar
     2    22    21   ar
     3    23    24   ar
     4    21    20    1
     5    21    26   ar
     6    24    25   ar
     7    20    19    1
     8    25    26   ar
     9    26    18    1
    10    19    18    1
    11    18    17    1
    12     3     2    1
    13     2     4    1
    14     2     1    1
    15     5     6    1
    16     7     6   ar
    17    13    15    1
    18    13    14    1
    19    15    16    1
    20     6     8   ar
    21     9    11    1
    22     9    10    1
    23    11    12    1
@<TRIPOS>MOLECULE
6433095
 41 45 0 0 0
SMALL
GASTEIGER

@<TRIPOS>ATOM
      1 S          -0.4000    0.5614   -4.7112 S.O2    1  LIG11       0.0908
      2 O          -3.8085    0.6815   -4.6053 O.3     1  LIG11      -0.4435
      3 O          -5.7652   -1.2173   -3.7714 O.3     1  LIG11      -0.4715
      4 O          -1.0028    1.6187   -5.5065 O.2     1  LIG11      -0.1484
      5 O           0.9976    0.6682   -4.3462 O.2     1  LIG11      -0.1484
      6 O          -5.2257    2.7205   -5.5402 O.3     1  LIG11      -0.4914
      7 O          -8.1642   -1.2996   -1.9791 O.3     1  LIG11      -0.3917
      8 N          -1.3206    0.5495   -3.2865 N.pl3   1  LIG11      -0.1950
      9 N          -1.9516   -1.4500   -2.3275 N.ar    1  LIG11      -0.2073
     10 N          -4.1159   -2.3887   -2.5994 N.ar    1  LIG11      -0.1899
     11 N          -0.4448   -2.1003   -4.9066 N.ar    1  LIG11      -0.2351
     12 N          -1.7669   -5.8481    0.1961 N.ar    1  LIG11      -0.2552
     13 N           0.4389   -5.7043    2.0260 N.ar    1  LIG11      -0.5621
     14 N           0.5844   -3.4660    1.7385 N.ar    1  LIG11      -0.1535
     15 N           1.3497   -5.1114    2.8053 N.ar    1  LIG11      -0.3597
     16 N           1.4695   -3.7870    2.6712 N.ar    1  LIG11      -0.0878
     17 C          -2.3208   -0.4588   -3.1521 C.ar    1  LIG11       0.1882
     18 C          -3.5532   -0.3713   -3.7715 C.ar    1  LIG11       0.2307
     19 C          -4.4481   -1.3464   -3.3839 C.ar    1  LIG11       0.2641
     20 C          -2.8597   -2.4108   -2.1199 C.ar    1  LIG11       0.1659
     21 C          -0.6300   -0.9615   -5.6204 C.ar    1  LIG11       0.1969
     22 C          -2.4744   -3.5827   -1.3202 C.ar    1  LIG11       0.0227
     23 C          -0.9432   -0.9228   -6.9710 C.ar    1  LIG11      -0.0160
     24 C          -4.5248    0.4678   -5.7686 C.ar    1  LIG11       0.1702
     25 C          -1.4213   -3.5351   -0.3938 C.ar    1  LIG11      -0.0252
     26 C          -0.8684   -3.3344   -6.9463 C.ar    1  LIG11      -0.0322
     27 C          -1.0655   -2.1371   -7.6402 C.ar    1  LIG11      -0.0541
     28 C          -3.1558   -4.8013   -1.4601 C.ar    1  LIG11      -0.0328
     29 C          -6.6038   -2.3480   -3.5098 C.3     1  LIG11       0.1143
     30 C          -1.1025   -4.6718    0.3475 C.ar    1  LIG11       0.0708
     31 C          -0.5581   -3.2573   -5.5907 C.ar    1  LIG11       0.0327
     32 C          -5.2736    1.5496   -6.2542 C.ar    1  LIG11       0.1621
     33 C          -4.4940   -0.7319   -6.4937 C.ar    1  LIG11      -0.0157
     34 C          -2.7701   -5.8877   -0.6979 C.ar    1  LIG11       0.0289
     35 C          -0.9537   -4.6624   -7.6301 C.3     1  LIG11      -0.0383
     36 C          -7.1745   -2.3212   -2.0914 C.3     1  LIG11       0.0783
     37 C          -6.0706    1.3873   -7.3921 C.ar    1  LIG11      -0.0163
     38 C          -5.2770   -0.8812   -7.6393 C.ar    1  LIG11      -0.0581
     39 C          -6.0759    0.1715   -8.0785 C.ar    1  LIG11      -0.0581
     40 C          -0.0379   -4.6364    1.3536 C.ar    1  LIG11       0.0207
     41 C          -5.1893    3.8927   -6.3503 C.3     1  LIG11       0.0790
@<TRIPOS>BOND
     1     1     4    2
     2     1     5    2
     3     1     8    1
     4     1    21    1
     5     2    18    1
     6     2    24    1
     7     3    19    1
     8     3    29    1
     9     6    32    1
    10     6    41    1
    11     7    36    1
    12     8    17    1
    13     9    17   ar
    14     9    20   ar
    15    10    19   ar
    16    10    20   ar
    17    11    21   ar
    18    11    31   ar
    19    12    30   ar
    20    12    34   ar
    21    13    15   ar
    22    13    40   ar
    23    14    16   ar
    24    14    40   ar
    25    15    16   ar
    26    17    18   ar
    27    18    19   ar
    28    20    22    1
    29    21    23   ar
    30    22    25   ar
    31    22    28   ar
    32    23    27   ar
    33    24    32   ar
    34    24    33   ar
    35    25    30   ar
    36    26    27   ar
    37    26    31   ar
    38    26    35    1
    39    28    34   ar
    40    29    36    1
    41    30    40    1
    42    32    37   ar
    43    33    38   ar
    44    37    39   ar
    45    38    39   ar
@<TRIPOS>MOLECULE
../ET1/ET1_17-21_50CONFORMERS.pdb
 47 48 0 0 0
SMALL
GASTEIGER

@<TRIPOS>ATOM
      1  N         -4.3360    0.0210   -1.6350 N.3    17  LEU17      -0.1231
      2  CA        -5.5740   -0.4820   -2.2450 C.3    17  LEU17       0.1693
      3  CB        -6.0910   -1.6180   -1.3980 C.3    17  LEU17       0.0284
      4  CG        -7.1940   -2.5360   -1.9300 C.3    17  LEU17       0.0019
      5  CD1       -6.7940   -3.3700   -3.1490 C.3    17  LEU17       0.0001
      6  CD2       -7.6880   -3.5890   -0.9250 C.3    17  LEU17       0.0001
      7  C         -6.7280    0.5290   -2.3580 C.2    17  LEU17       0.2592
      8  O         -7.4990    0.5240   -3.3000 O.2    17  LEU17      -0.2718
      9  N         -6.9180    1.3590   -1.3630 N.am   18  ASP18      -0.1960
     10  CA        -7.9590    2.3730   -1.2220 C.3    18  ASP18       0.1840
     11  CB        -9.2050    1.7950   -0.5390 C.3    18  ASP18       0.1450
     12  CG       -10.3200    2.7850   -0.5550 C.2    18  ASP18       0.3671
     13  OD1      -11.0210    2.7300   -1.6150 O.co2  18  ASP18      -0.2456
     14  OD2      -10.4710    3.5410    0.4120 O.co2  18  ASP18      -0.2456
     15  C         -7.4480    3.6540   -0.5780 C.2    18  ASP18       0.2622
     16  O         -7.7580    4.7430   -1.0410 O.2    18  ASP18      -0.2715
     17  N         -6.6220    3.5120    0.4740 N.am   19  ILE19      -0.1963
     18  CA        -5.9360    4.6640    1.0770 C.3    19  ILE19       0.1727
     19  CB        -4.9810    4.1540    2.2170 C.3    19  ILE19       0.0290
     20  CG2       -4.0530    5.3090    2.7190 C.3    19  ILE19       0.0023
     21  CG1       -5.7910    3.4760    3.3290 C.3    19  ILE19       0.0022
     22  CD1       -4.8670    2.8100    4.3570 C.3    19  ILE19       0.0001
     23  C         -5.1600    5.4290    0.0000 C.2    19  ILE19       0.2616
     24  O         -5.3650    6.6380   -0.1130 O.2    19  ILE19      -0.2715
     25  N         -4.3550    4.7180   -0.7820 N.am   20  ILE20      -0.1963
     26  CA        -3.5620    5.1550   -1.8730 C.3    20  ILE20       0.1727
     27  CB        -2.0910    5.4810   -1.4650 C.3    20  ILE20       0.0290
     28  CG2       -1.9860    6.7460   -0.5500 C.3    20  ILE20       0.0023
     29  CG1       -1.4960    4.2170   -0.7850 C.3    20  ILE20       0.0022
     30  CD1        0.0110    4.2170   -0.4870 C.3    20  ILE20       0.0001
     31  C         -3.6680    4.2220   -3.0430 C.2    20  ILE20       0.2617
     32  O         -3.6650    2.9720   -2.8760 O.2    20  ILE20      -0.2715
     33  N         -3.5890    4.8530   -4.2030 N.am   21  TRP21      -0.1941
     34  CA        -3.5660    4.1980   -5.4940 C.3    21  TRP21       0.1982
     35  CB        -5.0110    4.3230   -5.9680 C.3    21  TRP21       0.0394
     36  CG        -5.3960    3.4640   -7.1630 C.3    21  TRP21       0.0475
     37  CD1       -5.6040    3.8300   -8.4930 C.3    21  TRP21       0.1166
     38  NE1       -5.9490    2.6430   -9.2160 N.pl3  21  TRP21      -0.2376
     39  CE2       -5.6830    1.5430   -8.4990 C.ar   21  TRP21       0.0614
     40  CZ2       -5.7540    0.1720   -8.7210 C.ar   21  TRP21       0.0158
     41  CH2       -5.4780   -0.7730   -7.7240 C.ar   21  TRP21       0.0013
     42  CZ3       -5.2550   -0.3200   -6.3820 C.ar   21  TRP21      -0.0002
     43  CE3       -5.1180    1.0670   -6.1140 C.ar   21  TRP21      -0.0030
     44  CD2       -5.3540    2.0190   -7.1840 C.ar   21  TRP21      -0.0059
     45  C         -2.6690    4.8410   -6.5150 C.2    21  TRP21       0.3842
     46  O         -1.9570    4.1290   -7.1910 O.co2  21  TRP21      -0.2437
     47  OXT       -2.6800    6.0900   -6.6540 O.co2  21  TRP21      -0.2437
@<TRIPOS>BOND
     1    40    41   ar
     2    40    39   ar
     3    41    42   ar
     4    39    38    1
     5    39    44   ar
     6    42    43   ar
     7    38    37    1
     8    43    44   ar
     9    44    36    1
    10    37    36    1
    11    36    35    1
    12    47    45   ar
    13     5     4    1
    14    35    34    1
    15    45    34    1
    16    45    46   ar
    17    34    33    1
    18     8     7    2
    19     4     6    1
    20     4     3    1
    21     2     3    1
    22     2     1    1
    23     2     7    1
    24     7     9   am
    25    33    31   am
    26    32    31    2
    27    31    26    1
    28     9    10    1
    29    10    11    1
    30    10    15    1
    31    26    27    1
    32    26    25    1
    33    11    12    1
    34    13    12   ar
    35    27    29    1
    36    27    28    1
    37    29    30    1
    38    16    15    2
    39    15    17   am
    40    12    14   ar
    41    25    23   am
    42    17    18    1
    43    23    24    2
    44    23    18    1
    45    18    19    1
    46    19    21    1
    47    19    20    1
    48    21    22    1
