@<TRIPOS>MOLECULE
../ET1/ET1_17-21_50CONFORMERS_NOBACKBONE.pdb
 26 23 0 0 0
SMALL
GASTEIGER

@<TRIPOS>ATOM
      1  CB        -6.3930   -2.1110   -1.2450 C.3    17  LEU17       0.0000
      2  CG        -7.8050   -2.6450   -1.5590 C.3    17  LEU17       0.0000
      3  CD1       -8.0140   -2.9180   -3.0380 C.3    17  LEU17       0.0000
      4  CD2       -7.9070   -3.9870   -0.9150 C.3    17  LEU17       0.0000
      5  CB        -9.3620    1.4500    0.8640 C.3    18  ASP18       0.1258
      6  CG       -10.6720    2.2570    1.0000 C.2    18  ASP18       0.3654
      7  OD1      -11.6310    1.9220    0.2700 O.co2  18  ASP18      -0.2456
      8  OD2      -10.5730    3.2610    1.7420 O.co2  18  ASP18      -0.2456
      9  CB        -5.0550    3.8790    3.3490 C.3    19  ILE19       0.0000
     10  CG2       -4.4720    5.1840    3.9940 C.3    19  ILE19       0.0000
     11  CG1       -5.7460    2.9110    4.3260 C.3    19  ILE19       0.0000
     12  CD1       -4.7660    1.9810    5.1360 C.3    19  ILE19       0.0000
     13  CB        -2.5890    4.6890   -1.2580 C.3    20  ILE20       0.0000
     14  CG2       -2.0360    5.2650   -2.5660 C.3    20  ILE20       0.0000
     15  CG1       -1.8000    5.2360   -0.0430 C.3    20  ILE20       0.0000
     16  CD1       -0.3250    4.8950   -0.2060 C.3    20  ILE20       0.0000
     17  CB        -8.1130    4.2690   -3.5790 C.3    21  TRP21       0.0066
     18  CG        -8.8290    3.5660   -4.6970 C.3    21  TRP21       0.0452
     19  CD1       -9.9260    4.0510   -5.2650 C.3    21  TRP21       0.1165
     20  NE1      -10.2060    3.2220   -6.3210 N.pl3  21  TRP21      -0.2376
     21  CE2       -9.3890    2.1000   -6.4570 C.ar   21  TRP21       0.0614
     22  CZ2       -9.1720    1.1080   -7.4220 C.ar   21  TRP21       0.0158
     23  CH2       -8.0480    0.2790   -7.2920 C.ar   21  TRP21       0.0013
     24  CZ3       -7.2130    0.4420   -6.1700 C.ar   21  TRP21      -0.0002
     25  CE3       -7.3150    1.4940   -5.3170 C.ar   21  TRP21      -0.0030
     26  CD2       -8.4260    2.3550   -5.4210 C.ar   21  TRP21      -0.0059
@<TRIPOS>BOND
     1    22    23   ar
     2    22    21   ar
     3    23    24   ar
     4    21    20    1
     5    21    26   ar
     6    24    25   ar
     7    20    19    1
     8    25    26   ar
     9    26    18    1
    10    19    18    1
    11    18    17    1
    12     3     2    1
    13     2     4    1
    14     2     1    1
    15     5     6    1
    16     7     6   ar
    17    13    15    1
    18    13    14    1
    19    15    16    1
    20     6     8   ar
    21     9    11    1
    22     9    10    1
    23    11    12    1
@<TRIPOS>MOLECULE
01012527H
 38 40 0 0 0
SMALL
GASTEIGER

@<TRIPOS>ATOM
      1 C          -9.4833    1.3037   -3.0086 C.3     1  LIG11       0.0531
      2 C          -8.5434    1.0048   -1.8469 C.3     1  LIG11      -0.0111
      3 C          -8.7925    2.2870   -3.9562 C.3     1  LIG11       0.0375
      4 C         -10.6006    1.9943   -2.2302 C.2     1  LIG11       0.0509
      5 N          -7.3105    1.8588   -2.0741 N.3     1  LIG11       0.2448
      6 C          -8.2299   -0.4751   -1.5088 C.3     1  LIG11      -0.0039
      7 C          -8.3669    1.6076   -5.2522 C.ar    1  LIG11      -0.0313
      8 C          -7.7180    2.9321   -3.0809 C.3     1  LIG11      -0.0234
      9 O         -10.3974    3.2114   -1.9662 O.co2   1  LIG11      -0.5493
     10 O         -11.5057    1.2174   -1.8347 O.co2   1  LIG11      -0.5493
     11 C          -6.7959    2.4709   -0.7710 C.3     1  LIG11       0.0465
     12 C          -7.5238   -1.5082   -2.4403 C.3     1  LIG11      -0.0298
     13 C          -9.3887    1.1852   -6.1251 C.ar    1  LIG11      -0.0122
     14 C          -7.0287    1.3629   -5.6274 C.ar    1  LIG11      -0.0124
     15 C          -5.4916    3.2536   -0.9454 C.2     1  LIG11       0.2608
     16 C          -7.3438   -2.8577   -1.6564 C.3     1  LIG11      -0.0479
     17 C          -6.1039   -1.0619   -2.8338 C.3     1  LIG11      -0.0596
     18 C          -8.3263   -1.7907   -3.7171 C.3     1  LIG11      -0.0596
     19 C          -9.0469    0.5199   -7.2846 C.ar    1  LIG11       0.1702
     20 C          -6.7015    0.6560   -6.8012 C.ar    1  LIG11       0.1656
     21 N          -5.0299    4.0129    0.1258 N.am    1  LIG11      -0.2971
     22 O          -4.8929    3.1947   -2.0252 O.2     1  LIG11      -0.2697
     23 C          -8.6310   -3.5828   -1.2427 C.3     1  LIG11      -0.0554
     24 C          -7.7397    0.2505   -7.6200 C.ar    1  LIG11       0.2075
     25 O          -9.9384    0.0507   -8.1991 O.3     1  LIG11      -0.4525
     26 O          -5.3625    0.4510   -6.9789 O.3     1  LIG11      -0.4913
     27 C          -5.6340    4.0319    1.4694 C.3     1  LIG11       0.0148
     28 C          -3.8985    4.9158   -0.1181 C.3     1  LIG11       0.0148
     29 C          -8.3208   -4.9208   -0.5855 C.3     1  LIG11      -0.0653
     30 O          -7.6621   -0.4257   -8.8007 O.3     1  LIG11      -0.4489
     31 C          -9.0515   -0.5394   -9.1634 C.3     1  LIG11       0.2334
     32 C          -4.9846   -0.4788   -7.9877 C.3     1  LIG11       0.0790
     33 C          -4.6571    3.6000    2.5669 C.3     1  LIG11      -0.0374
     34 C          -2.5513    4.1889   -0.1456 C.3     1  LIG11      -0.0374
     35 C          -5.3395    3.5200    3.9323 C.3     1  LIG11      -0.0545
     36 C          -1.3574    5.1416   -0.2340 C.3     1  LIG11      -0.0545
     37 C          -4.3446    3.1724    5.0294 C.3     1  LIG11      -0.0652
     38 C          -1.3463    5.9860   -1.4991 C.3     1  LIG11      -0.0652
@<TRIPOS>BOND
     1     1     2    1
     2     1     3    1
     3     1     4    1
     4     2     5    1
     5     2     6    1
     6     3     8    1
     7     3     7    1
     8     4    10   ar
     9     4     9   ar
    10     5     8    1
    11     5    11    1
    12     6    12    1
    13     7    14   ar
    14     7    13   ar
    15    11    15    1
    16    12    18    1
    17    12    17    1
    18    12    16    1
    19    13    19   ar
    20    14    20   ar
    21    15    22    2
    22    15    21   am
    23    16    23    1
    24    19    25    1
    25    19    24   ar
    26    20    24   ar
    27    20    26    1
    28    21    28    1
    29    21    27    1
    30    23    29    1
    31    24    30    1
    32    25    31    1
    33    26    32    1
    34    27    33    1
    35    28    34    1
    36    30    31    1
    37    33    35    1
    38    34    36    1
    39    35    37    1
    40    36    38    1
@<TRIPOS>MOLECULE
../ET1/ET1_17-21_50CONFORMERS.pdb
 47 48 0 0 0
SMALL
GASTEIGER

@<TRIPOS>ATOM
      1  N         -4.8610   -0.2350   -1.3410 N.3    17  LEU17      -0.1231
      2  CA        -6.1980   -0.6940   -1.8490 C.3    17  LEU17       0.1693
      3  CB        -6.3930   -2.1110   -1.2450 C.3    17  LEU17       0.0284
      4  CG        -7.8050   -2.6450   -1.5590 C.3    17  LEU17       0.0019
      5  CD1       -8.0140   -2.9180   -3.0380 C.3    17  LEU17       0.0001
      6  CD2       -7.9070   -3.9870   -0.9150 C.3    17  LEU17       0.0001
      7  C         -7.2730    0.3850   -1.5790 C.2    17  LEU17       0.2592
      8  O         -8.0840    0.6620   -2.4580 O.2    17  LEU17      -0.2718
      9  N         -7.2350    1.0770   -0.4310 N.am   18  ASP18      -0.1960
     10  CA        -8.2450    2.0950   -0.0220 C.3    18  ASP18       0.1840
     11  CB        -9.3620    1.4500    0.8640 C.3    18  ASP18       0.1450
     12  CG       -10.6720    2.2570    1.0000 C.2    18  ASP18       0.3671
     13  OD1      -11.6310    1.9220    0.2700 O.co2  18  ASP18      -0.2456
     14  OD2      -10.5730    3.2610    1.7420 O.co2  18  ASP18      -0.2456
     15  C         -7.6690    3.3430    0.6470 C.2    18  ASP18       0.2622
     16  O         -8.1140    4.4430    0.3020 O.2    18  ASP18      -0.2715
     17  N         -6.7110    3.1950    1.5940 N.am   19  ILE19      -0.1963
     18  CA        -6.0160    4.3380    2.1630 C.3    19  ILE19       0.1727
     19  CB        -5.0550    3.8790    3.3490 C.3    19  ILE19       0.0290
     20  CG2       -4.4720    5.1840    3.9940 C.3    19  ILE19       0.0023
     21  CG1       -5.7460    2.9110    4.3260 C.3    19  ILE19       0.0022
     22  CD1       -4.7660    1.9810    5.1360 C.3    19  ILE19       0.0001
     23  C         -5.2160    5.0880    1.1020 C.2    19  ILE19       0.2616
     24  O         -4.9940    6.2970    1.0190 O.2    19  ILE19      -0.2715
     25  N         -4.7410    4.3480    0.0970 N.am   20  ILE20      -0.1963
     26  CA        -4.1220    4.8230   -1.1620 C.3    20  ILE20       0.1727
     27  CB        -2.5890    4.6890   -1.2580 C.3    20  ILE20       0.0290
     28  CG2       -2.0360    5.2650   -2.5660 C.3    20  ILE20       0.0023
     29  CG1       -1.8000    5.2360   -0.0430 C.3    20  ILE20       0.0022
     30  CD1       -0.3250    4.8950   -0.2060 C.3    20  ILE20       0.0001
     31  C         -4.9050    4.2320   -2.2970 C.2    20  ILE20       0.2617
     32  O         -4.8850    3.0030   -2.5220 O.2    20  ILE20      -0.2715
     33  N         -5.7970    5.0310   -2.9350 N.am   21  TRP21      -0.1941
     34  CA        -6.6830    4.6520   -4.0820 C.3    21  TRP21       0.1982
     35  CB        -8.1130    4.2690   -3.5790 C.3    21  TRP21       0.0394
     36  CG        -8.8290    3.5660   -4.6970 C.3    21  TRP21       0.0475
     37  CD1       -9.9260    4.0510   -5.2650 C.3    21  TRP21       0.1166
     38  NE1      -10.2060    3.2220   -6.3210 N.pl3  21  TRP21      -0.2376
     39  CE2       -9.3890    2.1000   -6.4570 C.ar   21  TRP21       0.0614
     40  CZ2       -9.1720    1.1080   -7.4220 C.ar   21  TRP21       0.0158
     41  CH2       -8.0480    0.2790   -7.2920 C.ar   21  TRP21       0.0013
     42  CZ3       -7.2130    0.4420   -6.1700 C.ar   21  TRP21      -0.0002
     43  CE3       -7.3150    1.4940   -5.3170 C.ar   21  TRP21      -0.0030
     44  CD2       -8.4260    2.3550   -5.4210 C.ar   21  TRP21      -0.0059
     45  C         -6.7050    5.7420   -5.1900 C.2    21  TRP21       0.3842
     46  O         -6.0970    5.4510   -6.2480 O.co2  21  TRP21      -0.2437
     47  OXT       -7.3810    6.7920   -5.1470 O.co2  21  TRP21      -0.2437
@<TRIPOS>BOND
     1    40    41   ar
     2    40    39   ar
     3    41    42   ar
     4    39    38    1
     5    39    44   ar
     6    42    43   ar
     7    38    37    1
     8    43    44   ar
     9    44    36    1
    10    37    36    1
    11    36    35    1
    12    47    45   ar
    13     5     4    1
    14    35    34    1
    15    45    34    1
    16    45    46   ar
    17    34    33    1
    18     8     7    2
    19     4     6    1
    20     4     3    1
    21     2     3    1
    22     2     1    1
    23     2     7    1
    24     7     9   am
    25    33    31   am
    26    32    31    2
    27    31    26    1
    28     9    10    1
    29    10    11    1
    30    10    15    1
    31    26    27    1
    32    26    25    1
    33    11    12    1
    34    13    12   ar
    35    27    29    1
    36    27    28    1
    37    29    30    1
    38    16    15    2
    39    15    17   am
    40    12    14   ar
    41    25    23   am
    42    17    18    1
    43    23    24    2
    44    23    18    1
    45    18    19    1
    46    19    21    1
    47    19    20    1
    48    21    22    1
