@<TRIPOS>MOLECULE
../ET1/ET1_17-21_50CONFORMERS_NOBACKBONE.pdb
 26 23 0 0 0
SMALL
GASTEIGER

@<TRIPOS>ATOM
      1  CB        -5.9250   -1.7020   -0.6090 C.3    17  LEU17       0.0000
      2  CG        -7.3350   -2.3400   -0.4320 C.3    17  LEU17       0.0000
      3  CD1       -7.8250   -2.9760   -1.7640 C.3    17  LEU17       0.0000
      4  CD2       -7.2810   -3.4490    0.6510 C.3    17  LEU17       0.0000
      5  CB        -9.3810    1.8010   -0.1350 C.3    18  ASP18       0.1258
      6  CG       -10.3510    2.9420   -0.1480 C.2    18  ASP18       0.3654
      7  OD1      -10.3540    3.7630    0.8020 O.co2  18  ASP18      -0.2456
      8  OD2      -11.1620    3.0020   -1.0640 O.co2  18  ASP18      -0.2456
      9  CB        -5.8480    4.1110    2.8050 C.3    19  ILE19       0.0000
     10  CG2       -4.4360    3.5410    2.6990 C.3    19  ILE19       0.0000
     11  CG1       -5.9520    5.2180    3.9010 C.3    19  ILE19       0.0000
     12  CD1       -5.2700    5.0410    5.2910 C.3    19  ILE19       0.0000
     13  CB        -2.2050    5.5180   -0.6590 C.3    20  ILE20       0.0000
     14  CG2       -2.0270    6.7600    0.2650 C.3    20  ILE20       0.0000
     15  CG1       -1.7390    4.2780    0.0680 C.3    20  ILE20       0.0000
     16  CD1       -0.2410    4.0620   -0.1470 C.3    20  ILE20       0.0000
     17  CB        -5.9180    4.2520   -5.1860 C.3    21  TRP21       0.0066
     18  CG        -6.1830    3.4440   -6.3980 C.3    21  TRP21       0.0452
     19  CD1       -6.5530    3.9940   -7.5750 C.3    21  TRP21       0.1165
     20  NE1       -6.7950    2.9250   -8.4560 N.pl3  21  TRP21      -0.2376
     21  CE2       -6.5250    1.7210   -7.8750 C.ar   21  TRP21       0.0614
     22  CZ2       -6.5900    0.4160   -8.3270 C.ar   21  TRP21       0.0158
     23  CH2       -6.3030   -0.7230   -7.4870 C.ar   21  TRP21       0.0013
     24  CZ3       -5.7700   -0.4130   -6.2280 C.ar   21  TRP21      -0.0002
     25  CE3       -5.6490    0.9570   -5.7980 C.ar   21  TRP21      -0.0030
     26  CD2       -6.0710    2.0140   -6.5550 C.ar   21  TRP21      -0.0059
@<TRIPOS>BOND
     1    22    23   ar
     2    22    21   ar
     3    23    24   ar
     4    21    20    1
     5    21    26   ar
     6    24    25   ar
     7    20    19    1
     8    25    26   ar
     9    26    18    1
    10    19    18    1
    11    18    17    1
    12     3     2    1
    13     2     4    1
    14     2     1    1
    15     5     6    1
    16     7     6   ar
    17    13    15    1
    18    13    14    1
    19    15    16    1
    20     6     8   ar
    21     9    11    1
    22     9    10    1
    23    11    12    1
@<TRIPOS>MOLECULE
HTS1204-03362316-01
 44 47 0 0 0
SMALL
USER_CHARGES

@<TRIPOS>ATOM
      1 C1         -5.1350    0.7880   -5.2591 C.ar    1  UNK11      -0.0199
      2 N1         -4.9350    2.1764   -6.9974 N.ar    1  UNK11      -0.3494
      3 C2         -5.2502    0.9759    2.8980 C.2     1  UNK11       0.3028
      4 C3         -4.5792    1.9773   -5.6896 C.ar    1  UNK11       0.0086
      5 C4         -2.6033    0.7096   -3.2193 C.2     1  UNK11       0.2342
      6 C5         -5.8992    0.2757   -6.3638 C.ar    1  UNK11       0.0031
      7 C6         -5.3299    0.3516   -0.6999 C.2     1  UNK11       0.2340
      8 C7         -5.7529    1.1584   -7.4358 C.ar    1  UNK11       0.0491
      9 N2         -4.8842    0.7964    1.5995 N.am    1  UNK11      -0.2879
     10 N3         -4.8097    2.1746    3.4618 N.am    1  UNK11      -0.2856
     11 N4         -4.3049    0.0572   -1.5714 N.am    1  UNK11      -0.3022
     12 N5         -1.6967    1.3863   -2.4385 N.am    1  UNK11      -0.3054
     13 C8         -4.1138    0.7537   -2.8537 C.3     1  UNK11       0.1034
     14 C9         -5.2128   -0.3196    0.6953 C.3     1  UNK11       0.1011
     15 C10        -1.8907    1.8754   -1.0539 C.3     1  UNK11       0.0680
     16 C11        -4.9977    0.0968   -3.9272 C.3     1  UNK11       0.0013
     17 C12        -1.9224    0.7849    0.0609 C.2     1  UNK11       0.0623
     18 C13        -0.8832    2.9692   -0.6785 C.3     1  UNK11       0.0133
     19 O1         -5.9328    0.1807    3.5421 O.2     1  UNK11      -0.2526
     20 O2         -6.2365    1.1306   -1.0011 O.2     1  UNK11      -0.2738
     21 O3         -2.1756    0.1447   -4.2303 O.2     1  UNK11      -0.2738
     22 N6          0.9191    1.3100   -0.9778 N.ar    1  UNK11      -0.2598
     23 O4         -2.0347   -0.4140   -0.3395 O.co2   1  UNK11      -0.5479
     24 C14        -6.4779   -1.1366    1.0105 C.3     1  UNK11      -0.0236
     25 C15         0.5688    2.5539   -0.5818 C.ar    1  UNK11       0.0434
     26 O5         -2.1002    1.2281    1.2361 O.co2   1  UNK11      -0.5479
     27 C16        -4.4917    3.2851   -7.8107 C.3     1  UNK11       0.0119
     28 C17        -5.0306    2.3515    4.8974 C.3     1  UNK11       0.0161
     29 C18        -4.2344    3.2883    2.7006 C.3     1  UNK11       0.0161
     30 C19        -6.3646    0.9304   -8.6806 C.ar    1  UNK11      -0.0376
     31 C20        -6.6937   -0.8773   -6.5428 C.ar    1  UNK11      -0.0523
     32 C21        -6.5918   -2.4534    0.2006 C.3     1  UNK11      -0.0446
     33 C22         2.2057    0.9350   -0.8175 C.ar    1  UNK11       0.0279
     34 C23         1.5080    3.4662   -0.1039 C.ar    1  UNK11      -0.0403
     35 C24        -7.1589   -2.2520   -1.2047 C.3     1  UNK11      -0.0626
     36 C25        -7.4774   -3.4521    0.9548 C.3     1  UNK11      -0.0626
     37 C26        -4.8212    3.7649    5.4450 C.3     1  UNK11      -0.0371
     38 C27        -5.2443    4.4071    2.4334 C.3     1  UNK11      -0.0371
     39 C28        -7.3101   -1.1133   -7.7759 C.ar    1  UNK11      -0.0611
     40 C29        -7.1447   -0.2205   -8.8300 C.ar    1  UNK11      -0.0598
     41 C30         3.1948    1.7748   -0.3373 C.ar    1  UNK11      -0.0436
     42 C31         2.8380    3.0717    0.0110 C.ar    1  UNK11      -0.0586
     43 C32        -5.8105    4.8085    4.9210 C.3     1  UNK11      -0.0516
     44 C33        -6.3215    4.6065    3.4972 C.3     1  UNK11      -0.0516
@<TRIPOS>BOND
     1     2     4   ar
     2     3     9   am
     3     1     4   ar
     4     5    13    1
     5     1     6   ar
     6     7    11   am
     7     6     8   ar
     8     9    14    1
     9     3    10   am
    10    11    13    1
    11     5    12   am
    12    13    16    1
    13     7    14    1
    14    12    15    1
    15     1    16    1
    16    15    17    1
    17    15    18    1
    18     3    19    2
    19     7    20    2
    20     5    21    2
    21    22    25   ar
    22    17    23   ar
    23    14    24    1
    24    18    25    1
    25    17    26   ar
    26     2    27    1
    27    10    28    1
    28    10    29    1
    29     8    30   ar
    30     6    31   ar
    31    24    32    1
    32    22    33   ar
    33    25    34   ar
    34    32    35    1
    35    32    36    1
    36    28    37    1
    37    29    38    1
    38    31    39   ar
    39    39    40   ar
    40    41    42   ar
    41    34    42   ar
    42    37    43    1
    43    38    44    1
    44     2     8   ar
    45    30    40   ar
    46    33    41   ar
    47    43    44    1
@<TRIPOS>MOLECULE
../ET1/ET1_17-21_50CONFORMERS.pdb
 47 48 0 0 0
SMALL
GASTEIGER

@<TRIPOS>ATOM
      1  N         -4.3700   -0.2050   -1.7330 N.3    17  LEU17      -0.1231
      2  CA        -5.7270   -0.7750   -1.8670 C.3    17  LEU17       0.1693
      3  CB        -5.9250   -1.7020   -0.6090 C.3    17  LEU17       0.0284
      4  CG        -7.3350   -2.3400   -0.4320 C.3    17  LEU17       0.0019
      5  CD1       -7.8250   -2.9760   -1.7640 C.3    17  LEU17       0.0001
      6  CD2       -7.2810   -3.4490    0.6510 C.3    17  LEU17       0.0001
      7  C         -6.8660    0.3180   -2.0260 C.2    17  LEU17       0.2592
      8  O         -7.5290    0.4260   -3.0600 O.2    17  LEU17      -0.2718
      9  N         -7.1710    1.0340   -0.9730 N.am   18  ASP18      -0.1960
     10  CA        -8.1490    2.1740   -0.9600 C.3    18  ASP18       0.1840
     11  CB        -9.3810    1.8010   -0.1350 C.3    18  ASP18       0.1450
     12  CG       -10.3510    2.9420   -0.1480 C.2    18  ASP18       0.3671
     13  OD1      -10.3540    3.7630    0.8020 O.co2  18  ASP18      -0.2456
     14  OD2      -11.1620    3.0020   -1.0640 O.co2  18  ASP18      -0.2456
     15  C         -7.5260    3.4970   -0.5310 C.2    18  ASP18       0.2622
     16  O         -7.5490    4.4920   -1.2150 O.2    18  ASP18      -0.2715
     17  N         -7.0110    3.4560    0.6880 N.am   19  ILE19      -0.1963
     18  CA        -6.4050    4.6090    1.4860 C.3    19  ILE19       0.1727
     19  CB        -5.8480    4.1110    2.8050 C.3    19  ILE19       0.0290
     20  CG2       -4.4360    3.5410    2.6990 C.3    19  ILE19       0.0023
     21  CG1       -5.9520    5.2180    3.9010 C.3    19  ILE19       0.0022
     22  CD1       -5.2700    5.0410    5.2910 C.3    19  ILE19       0.0001
     23  C         -5.3800    5.4660    0.7170 C.2    19  ILE19       0.2616
     24  O         -5.2630    6.6980    1.0150 O.2    19  ILE19      -0.2715
     25  N         -4.6510    4.8890   -0.3130 N.am   20  ILE20      -0.1963
     26  CA        -3.6930    5.5110   -1.2680 C.3    20  ILE20       0.1727
     27  CB        -2.2050    5.5180   -0.6590 C.3    20  ILE20       0.0290
     28  CG2       -2.0270    6.7600    0.2650 C.3    20  ILE20       0.0023
     29  CG1       -1.7390    4.2780    0.0680 C.3    20  ILE20       0.0022
     30  CD1       -0.2410    4.0620   -0.1470 C.3    20  ILE20       0.0001
     31  C         -3.7690    4.7160   -2.6150 C.2    20  ILE20       0.2617
     32  O         -3.3950    3.5270   -2.6260 O.2    20  ILE20      -0.2715
     33  N         -4.2860    5.3520   -3.6550 N.am   21  TRP21      -0.1941
     34  CA        -4.5320    4.7740   -5.0040 C.3    21  TRP21       0.1982
     35  CB        -5.9180    4.2520   -5.1860 C.3    21  TRP21       0.0394
     36  CG        -6.1830    3.4440   -6.3980 C.3    21  TRP21       0.0475
     37  CD1       -6.5530    3.9940   -7.5750 C.3    21  TRP21       0.1166
     38  NE1       -6.7950    2.9250   -8.4560 N.pl3  21  TRP21      -0.2376
     39  CE2       -6.5250    1.7210   -7.8750 C.ar   21  TRP21       0.0614
     40  CZ2       -6.5900    0.4160   -8.3270 C.ar   21  TRP21       0.0158
     41  CH2       -6.3030   -0.7230   -7.4870 C.ar   21  TRP21       0.0013
     42  CZ3       -5.7700   -0.4130   -6.2280 C.ar   21  TRP21      -0.0002
     43  CE3       -5.6490    0.9570   -5.7980 C.ar   21  TRP21      -0.0030
     44  CD2       -6.0710    2.0140   -6.5550 C.ar   21  TRP21      -0.0059
     45  C         -4.0910    5.7090   -6.1000 C.2    21  TRP21       0.3842
     46  O         -4.4160    6.9060   -5.9990 O.co2  21  TRP21      -0.2437
     47  OXT       -3.3120    5.2700   -6.9670 O.co2  21  TRP21      -0.2437
@<TRIPOS>BOND
     1    40    41   ar
     2    40    39   ar
     3    41    42   ar
     4    39    38    1
     5    39    44   ar
     6    42    43   ar
     7    38    37    1
     8    43    44   ar
     9    44    36    1
    10    37    36    1
    11    36    35    1
    12    47    45   ar
    13     5     4    1
    14    35    34    1
    15    45    34    1
    16    45    46   ar
    17    34    33    1
    18     8     7    2
    19     4     6    1
    20     4     3    1
    21     2     3    1
    22     2     1    1
    23     2     7    1
    24     7     9   am
    25    33    31   am
    26    32    31    2
    27    31    26    1
    28     9    10    1
    29    10    11    1
    30    10    15    1
    31    26    27    1
    32    26    25    1
    33    11    12    1
    34    13    12   ar
    35    27    29    1
    36    27    28    1
    37    29    30    1
    38    16    15    2
    39    15    17   am
    40    12    14   ar
    41    25    23   am
    42    17    18    1
    43    23    24    2
    44    23    18    1
    45    18    19    1
    46    19    21    1
    47    19    20    1
    48    21    22    1
