@<TRIPOS>MOLECULE
../ET1/ET1_17-21_50CONFORMERS_NOBACKBONE.pdb
 26 23 0 0 0
SMALL
GASTEIGER

@<TRIPOS>ATOM
      1  CB        -6.1680   -1.6030   -0.8030 C.3    17  LEU17       0.0000
      2  CG        -7.3010   -2.6660   -0.9890 C.3    17  LEU17       0.0000
      3  CD1       -6.9130   -3.7970   -1.9630 C.3    17  LEU17       0.0000
      4  CD2       -7.4830   -3.2850    0.3370 C.3    17  LEU17       0.0000
      5  CB        -9.3270    1.4400   -1.0160 C.3    18  ASP18       0.1258
      6  CG       -10.6300    2.2090   -1.2500 C.2    18  ASP18       0.3654
      7  OD1      -11.0860    2.2920   -2.4490 O.co2  18  ASP18      -0.2456
      8  OD2      -11.2320    2.7130   -0.3400 O.co2  18  ASP18      -0.2456
      9  CB        -7.2480    4.9270    1.5370 C.3    19  ILE19       0.0000
     10  CG2       -6.8910    6.2680    2.1860 C.3    19  ILE19       0.0000
     11  CG1       -8.6480    4.4460    2.0860 C.3    19  ILE19       0.0000
     12  CD1       -8.7390    4.2860    3.5900 C.3    19  ILE19       0.0000
     13  CB        -2.4540    4.3920    0.1650 C.3    20  ILE20       0.0000
     14  CG2       -0.9250    4.3550   -0.2960 C.3    20  ILE20       0.0000
     15  CG1       -2.3670    5.0710    1.5310 C.3    20  ILE20       0.0000
     16  CD1       -3.4310    4.7860    2.5760 C.3    20  ILE20       0.0000
     17  CB        -4.3330    5.4990   -4.9470 C.3    21  TRP21       0.0066
     18  CG        -4.7390    4.8290   -6.1730 C.3    21  TRP21       0.0452
     19  CD1       -4.3830    5.3150   -7.3710 C.3    21  TRP21       0.1165
     20  NE1       -4.8840    4.4920   -8.3410 N.pl3  21  TRP21      -0.2376
     21  CE2       -5.5200    3.3960   -7.8350 C.ar   21  TRP21       0.0614
     22  CZ2       -6.2050    2.3030   -8.4580 C.ar   21  TRP21       0.0158
     23  CH2       -6.8150    1.3270   -7.6190 C.ar   21  TRP21       0.0013
     24  CZ3       -6.9630    1.6000   -6.2310 C.ar   21  TRP21      -0.0002
     25  CE3       -6.3060    2.7150   -5.5920 C.ar   21  TRP21      -0.0030
     26  CD2       -5.5210    3.6010   -6.4020 C.ar   21  TRP21      -0.0059
@<TRIPOS>BOND
     1    22    23   ar
     2    22    21   ar
     3    23    24   ar
     4    21    20    1
     5    21    26   ar
     6    24    25   ar
     7    20    19    1
     8    25    26   ar
     9    26    18    1
    10    19    18    1
    11    18    17    1
    12     3     2    1
    13     2     4    1
    14     2     1    1
    15     5     6    1
    16     7     6   ar
    17    13    15    1
    18    13    14    1
    19    15    16    1
    20     6     8   ar
    21     9    11    1
    22     9    10    1
    23    11    12    1
@<TRIPOS>MOLECULE
123882
 66 71 0 0 0
SMALL
GASTEIGER

@<TRIPOS>ATOM
      1 S          -6.7486    9.6864    1.1876 S.2     3  UNK33      -0.0993
      2 O         -11.9958    0.6094    2.4425 O.2     1  UNK11      -0.2755
      3 O          -2.6036    3.4626   -2.0564 O.2     4  LEU44      -0.2738
      4 O         -10.1315    3.0819    0.5023 O.2     1  UNK11      -0.2737
      5 O          -6.4857    2.6970   -0.9095 O.2     5  TRP55      -0.2738
      6 O          -8.9284   -0.0130   -1.5041 O.2     6  ASP66      -0.2738
      7 O          -4.6130    7.3810   -0.4918 O.2     3  UNK33      -0.2734
      8 O          -6.3919    4.2720    2.1013 O.2     2  ASP22      -0.2737
      9 OD1        -4.2621   -1.1783   -2.5069 O.co2   6  ASP66      -0.5497
     10 OD2        -4.4120   -2.5928   -0.7129 O.co2   6  ASP66      -0.5497
     11 OD1       -10.7222    3.7678    4.6636 O.co2   2  ASP22      -0.5497
     12 OD2       -10.0298    5.7249    5.6046 O.co2   2  ASP22      -0.5497
     13 N         -11.1007    0.0783    4.4862 N.am    1  UNK11      -0.2984
     14 N         -11.1161    0.1634    7.4514 N.pl3   1  UNK11      -0.3269
     15 N          -8.1630    0.5054    0.6051 N.am    1  UNK11      -0.3020
     16 N          -4.7797    4.1693   -2.2072 N.am    5  TRP55      -0.3022
     17 N          -4.8174    5.2456    0.2339 N.am    4  LEU44      -0.3022
     18 N          -6.1217    0.8393   -2.1897 N.am    6  ASP66      -0.3021
     19 N          -8.8342    2.8762    2.3754 N.am    2  ASP22      -0.3021
     20 N          -7.6272    5.9441    1.1559 N.am    3  UNK33      -0.2984
     21 NE1        -8.0451    0.9142   -5.8674 N.ar    5  TRP55      -0.3604
     22 C         -10.0450   -0.5264    5.3032 C.3     1  UNK11       0.0304
     23 C         -12.2481    0.6199    5.2253 C.3     1  UNK11       0.0304
     24 C         -10.5610   -0.9694    6.6830 C.3     1  UNK11       0.0280
     25 C         -11.8458    1.1748    6.6087 C.3     1  UNK11       0.0280
     26 C         -11.0149    0.3052    3.1204 C.2     1  UNK11       0.2179
     27 C          -9.6591    0.0650    2.4849 C.3     1  UNK11       0.0510
     28 C          -9.4843    0.8226    1.1662 C.3     1  UNK11       0.1076
     29 CA         -3.4882    4.8106   -0.2089 C.3     4  LEU44       0.0997
     30 CB         -2.8370    3.8987    0.8522 C.3     4  LEU44      -0.0236
     31 CA         -5.2966    3.0403   -3.0022 C.3     5  TRP55       0.1034
     32 C         -10.3003    0.8016    8.4091 C.ar    1  UNK11       0.0298
     33 CG         -2.2562    4.6208    2.0906 C.3     4  LEU44      -0.0446
     34 CB         -6.2607    3.5797   -4.0656 C.3     5  TRP55       0.0013
     35 C          -3.5611    4.0598   -1.5671 C.2     4  LEU44       0.2340
     36 CA         -6.5081   -0.0649   -1.1088 C.3     6  ASP66       0.1045
     37 C          -9.5621    2.3603    1.3207 C.2     1  UNK11       0.2344
     38 CG         -6.8089    2.5711   -5.0272 C.ar    5  TRP55      -0.0201
     39 C          -6.0217    2.1849   -1.9347 C.2     5  TRP55       0.2343
     40 C          -7.9935    0.1505   -0.7223 C.2     6  ASP66       0.2343
     41 CA         -8.7676    4.3097    2.6258 C.3     2  ASP22       0.1045
     42 CD2        -3.2997    5.3336    2.9497 C.3     4  LEU44      -0.0626
     43 CD1        -1.5106    3.6065    2.9667 C.3     4  LEU44      -0.0626
     44 C          -6.5313    6.9006    0.9928 C.3     3  UNK33       0.1311
     45 C         -10.8947    1.6453    9.3641 C.ar    1  UNK11      -0.0407
     46 C          -8.9040    0.6739    8.4556 C.ar    1  UNK11      -0.0407
     47 CD2        -6.4566    2.3814   -6.4056 C.ar    5  TRP55       0.0029
     48 C          -5.2773    6.5373    0.1153 C.2     3  UNK33       0.2390
     49 CB         -6.3519   -1.5277   -1.5034 C.3     6  ASP66       0.0138
     50 CD1        -7.8223    1.6734   -4.7545 C.ar    5  TRP55       0.0060
     51 CE2        -7.2571    1.3510   -6.9052 C.ar    5  TRP55       0.0467
     52 C          -7.4864    4.8121    1.9281 C.2     2  ASP22       0.2345
     53 CB         -8.5966    4.6375    4.1056 C.3     2  ASP22       0.0138
     54 C         -10.1329    2.3472   10.3041 C.ar    1  UNK11      -0.0600
     55 C          -8.1350    1.3751    9.3930 C.ar    1  UNK11      -0.0600
     56 C          -7.1319    8.1827    0.4485 C.ar    3  UNK33       0.0189
     57 CE3        -5.5388    2.9954   -7.2847 C.ar    5  TRP55      -0.0523
     58 C          -8.7494    2.2148   10.3152 C.ar    1  UNK11      -0.0616
     59 CZ2        -7.1905    0.9084   -8.2324 C.ar    5  TRP55      -0.0378
     60 CG         -4.8628   -1.7960   -1.5799 C.2     6  ASP66       0.0440
     61 CZ3        -5.4634    2.5690   -8.6177 C.ar    5  TRP55      -0.0611
     62 C          -7.9883    8.3583   -0.6254 C.ar    3  UNK33      -0.0493
     63 CH2        -6.2800    1.5411   -9.0827 C.ar    5  TRP55      -0.0598
     64 CG         -9.9163    4.7170    4.8502 C.2     2  ASP22       0.0440
     65 C          -8.3172    9.7275   -0.8423 C.ar    3  UNK33      -0.0544
     66 C          -7.6979   10.5563    0.0649 C.ar    3  UNK33      -0.0240
@<TRIPOS>BOND
     1     1    56   ar
     2     1    66   ar
     3     2    26    2
     4     3    35    2
     5     4    37    2
     6     5    39    2
     7     6    40    2
     8     7    48    2
     9     8    52    2
    10     9    60   ar
    11    10    60   ar
    12    11    64   ar
    13    12    64   ar
    14    13    22    1
    15    13    23    1
    16    14    24    1
    17    14    25    1
    18    14    32    1
    19    15    28    1
    20    15    40   am
    21    16    35   am
    22    16    31    1
    23    17    48   am
    24    17    29    1
    25    18    39   am
    26    18    36    1
    27    19    37   am
    28    19    41    1
    29    20    52   am
    30    20    44    1
    31    21    50   ar
    32    21    51   ar
    33    22    24    1
    34    23    25    1
    35    26    27    1
    36    26    13   am
    37    28    37    1
    38    28    27    1
    39    29    35    1
    40    29    30    1
    41    30    33    1
    42    31    39    1
    43    31    34    1
    44    32    45   ar
    45    32    46   ar
    46    33    43    1
    47    33    42    1
    48    34    38    1
    49    36    40    1
    50    36    49    1
    51    38    47   ar
    52    38    50   ar
    53    41    52    1
    54    41    53    1
    55    44    48    1
    56    44    56    1
    57    45    54   ar
    58    46    55   ar
    59    47    57   ar
    60    47    51   ar
    61    49    60    1
    62    51    59   ar
    63    53    64    1
    64    54    58   ar
    65    55    58   ar
    66    56    62   ar
    67    57    61   ar
    68    59    63   ar
    69    61    63   ar
    70    62    65   ar
    71    65    66   ar
@<TRIPOS>MOLECULE
../ET1/ET1_17-21_50CONFORMERS.pdb
 47 48 0 0 0
SMALL
GASTEIGER

@<TRIPOS>ATOM
      1  N         -4.4070   -0.1580   -1.6100 N.3    17  LEU17      -0.1231
      2  CA        -5.6240   -0.8400   -1.9910 C.3    17  LEU17       0.1693
      3  CB        -6.1680   -1.6030   -0.8030 C.3    17  LEU17       0.0284
      4  CG        -7.3010   -2.6660   -0.9890 C.3    17  LEU17       0.0019
      5  CD1       -6.9130   -3.7970   -1.9630 C.3    17  LEU17       0.0001
      6  CD2       -7.4830   -3.2850    0.3370 C.3    17  LEU17       0.0001
      7  C         -6.6870    0.1230   -2.5080 C.2    17  LEU17       0.2592
      8  O         -7.3680   -0.2170   -3.4720 O.2    17  LEU17      -0.2718
      9  N         -7.0550    1.1550   -1.7250 N.am   18  ASP18      -0.1960
     10  CA        -8.2140    1.9780   -1.9970 C.3    18  ASP18       0.1840
     11  CB        -9.3270    1.4400   -1.0160 C.3    18  ASP18       0.1450
     12  CG       -10.6300    2.2090   -1.2500 C.2    18  ASP18       0.3671
     13  OD1      -11.0860    2.2920   -2.4490 O.co2  18  ASP18      -0.2456
     14  OD2      -11.2320    2.7130   -0.3400 O.co2  18  ASP18      -0.2456
     15  C         -7.8840    3.4890   -1.7310 C.2    18  ASP18       0.2622
     16  O         -8.1040    4.2530   -2.6550 O.2    18  ASP18      -0.2715
     17  N         -7.4380    3.8400   -0.5470 N.am   19  ILE19      -0.1963
     18  CA        -7.1780    5.1420    0.0290 C.3    19  ILE19       0.1727
     19  CB        -7.2480    4.9270    1.5370 C.3    19  ILE19       0.0290
     20  CG2       -6.8910    6.2680    2.1860 C.3    19  ILE19       0.0023
     21  CG1       -8.6480    4.4460    2.0860 C.3    19  ILE19       0.0022
     22  CD1       -8.7390    4.2860    3.5900 C.3    19  ILE19       0.0001
     23  C         -5.7780    5.6630   -0.5380 C.2    19  ILE19       0.2616
     24  O         -5.6970    6.7570   -1.0600 O.2    19  ILE19      -0.2715
     25  N         -4.7690    4.8050   -0.3150 N.am   20  ILE20      -0.1963
     26  CA        -3.4620    5.0020   -0.8160 C.3    20  ILE20       0.1727
     27  CB        -2.4540    4.3920    0.1650 C.3    20  ILE20       0.0290
     28  CG2       -0.9250    4.3550   -0.2960 C.3    20  ILE20       0.0023
     29  CG1       -2.3670    5.0710    1.5310 C.3    20  ILE20       0.0022
     30  CD1       -3.4310    4.7860    2.5760 C.3    20  ILE20       0.0001
     31  C         -3.2210    4.4080   -2.1730 C.2    20  ILE20       0.2617
     32  O         -3.6730    3.2860   -2.4590 O.2    20  ILE20      -0.2715
     33  N         -2.7570    5.2530   -3.1090 N.am   21  TRP21      -0.1941
     34  CA        -2.8960    5.1440   -4.5550 C.3    21  TRP21       0.1982
     35  CB        -4.3330    5.4990   -4.9470 C.3    21  TRP21       0.0394
     36  CG        -4.7390    4.8290   -6.1730 C.3    21  TRP21       0.0475
     37  CD1       -4.3830    5.3150   -7.3710 C.3    21  TRP21       0.1166
     38  NE1       -4.8840    4.4920   -8.3410 N.pl3  21  TRP21      -0.2376
     39  CE2       -5.5200    3.3960   -7.8350 C.ar   21  TRP21       0.0614
     40  CZ2       -6.2050    2.3030   -8.4580 C.ar   21  TRP21       0.0158
     41  CH2       -6.8150    1.3270   -7.6190 C.ar   21  TRP21       0.0013
     42  CZ3       -6.9630    1.6000   -6.2310 C.ar   21  TRP21      -0.0002
     43  CE3       -6.3060    2.7150   -5.5920 C.ar   21  TRP21      -0.0030
     44  CD2       -5.5210    3.6010   -6.4020 C.ar   21  TRP21      -0.0059
     45  C         -1.8100    6.0150   -5.1580 C.2    21  TRP21       0.3842
     46  O         -1.3610    5.7820   -6.2550 O.co2  21  TRP21      -0.2437
     47  OXT       -1.2950    6.9770   -4.4370 O.co2  21  TRP21      -0.2437
@<TRIPOS>BOND
     1    40    41   ar
     2    40    39   ar
     3    41    42   ar
     4    39    38    1
     5    39    44   ar
     6    42    43   ar
     7    38    37    1
     8    43    44   ar
     9    44    36    1
    10    37    36    1
    11    36    35    1
    12    47    45   ar
    13     5     4    1
    14    35    34    1
    15    45    34    1
    16    45    46   ar
    17    34    33    1
    18     8     7    2
    19     4     6    1
    20     4     3    1
    21     2     3    1
    22     2     1    1
    23     2     7    1
    24     7     9   am
    25    33    31   am
    26    32    31    2
    27    31    26    1
    28     9    10    1
    29    10    11    1
    30    10    15    1
    31    26    27    1
    32    26    25    1
    33    11    12    1
    34    13    12   ar
    35    27    29    1
    36    27    28    1
    37    29    30    1
    38    16    15    2
    39    15    17   am
    40    12    14   ar
    41    25    23   am
    42    17    18    1
    43    23    24    2
    44    23    18    1
    45    18    19    1
    46    19    21    1
    47    19    20    1
    48    21    22    1
