@<TRIPOS>MOLECULE
../ET1/ET1_17-21_50CONFORMERS_NOBACKBONE.pdb
 26 23 0 0 0
SMALL
GASTEIGER

@<TRIPOS>ATOM
      1  CB        -5.6560   -2.0130   -0.9140 C.3    17  LEU17       0.0000
      2  CG        -7.0430   -2.5080   -0.6020 C.3    17  LEU17       0.0000
      3  CD1       -7.7900   -3.0040   -1.8120 C.3    17  LEU17       0.0000
      4  CD2       -7.1720   -3.5500    0.4900 C.3    17  LEU17       0.0000
      5  CB        -8.8680    1.4860    0.1670 C.3    18  ASP18       0.1258
      6  CG       -10.2320    2.1200   -0.0550 C.2    18  ASP18       0.3654
      7  OD1      -10.8920    1.6370   -1.0120 O.co2  18  ASP18      -0.2456
      8  OD2      -10.6300    3.0590    0.6490 O.co2  18  ASP18      -0.2456
      9  CB        -5.9660    4.7960    2.7400 C.3    19  ILE19       0.0000
     10  CG2       -4.6800    4.0440    2.8270 C.3    19  ILE19       0.0000
     11  CG1       -5.7570    6.1350    3.5640 C.3    19  ILE19       0.0000
     12  CD1       -6.9460    7.0030    3.7030 C.3    19  ILE19       0.0000
     13  CB        -2.2100    5.4370   -1.2690 C.3    20  ILE20       0.0000
     14  CG2       -1.8610    6.5760   -0.2560 C.3    20  ILE20       0.0000
     15  CG1       -1.5260    4.1100   -0.9140 C.3    20  ILE20       0.0000
     16  CD1       -0.0200    4.2560   -0.6990 C.3    20  ILE20       0.0000
     17  CB        -6.7280    3.3830   -4.1640 C.3    21  TRP21       0.0066
     18  CG        -7.1910    2.3800   -5.1940 C.3    21  TRP21       0.0452
     19  CD1       -8.2010    2.5130   -6.1000 C.3    21  TRP21       0.1165
     20  NE1       -8.2490    1.3760   -6.9010 N.pl3  21  TRP21      -0.2376
     21  CE2       -7.1040    0.6070   -6.6890 C.ar   21  TRP21       0.0614
     22  CZ2       -6.5890   -0.5400   -7.3230 C.ar   21  TRP21       0.0158
     23  CH2       -5.3990   -1.1090   -6.8770 C.ar   21  TRP21       0.0013
     24  CZ3       -4.8390   -0.5650   -5.6710 C.ar   21  TRP21      -0.0002
     25  CE3       -5.4260    0.5390   -4.9710 C.ar   21  TRP21      -0.0030
     26  CD2       -6.4960    1.1980   -5.5550 C.ar   21  TRP21      -0.0059
@<TRIPOS>BOND
     1    22    23   ar
     2    22    21   ar
     3    23    24   ar
     4    21    20    1
     5    21    26   ar
     6    24    25   ar
     7    20    19    1
     8    25    26   ar
     9    26    18    1
    10    19    18    1
    11    18    17    1
    12     3     2    1
    13     2     4    1
    14     2     1    1
    15     5     6    1
    16     7     6   ar
    17    13    15    1
    18    13    14    1
    19    15    16    1
    20     6     8   ar
    21     9    11    1
    22     9    10    1
    23    11    12    1
@<TRIPOS>MOLECULE
02228316B
 42 46 0 0 0
SMALL
GASTEIGER

@<TRIPOS>ATOM
      1 C          -2.1061    4.4591   -0.2210 C.3     1  LIG11       0.2491
      2 C          -2.3249    3.0555   -0.7500 C.2     1  LIG11       0.3556
      3 N          -3.0658    4.5625    0.9077 N.2     1  LIG11      -0.0687
      4 C          -0.6798    4.7236    0.2705 C.3     1  LIG11       0.0059
      5 C          -2.4222    5.5365   -1.2605 C.3     1  LIG11       0.0059
      6 N          -3.4532    2.5997   -0.1253 N.am    1  LIG11      -0.1529
      7 O          -1.6088    2.4560   -1.5374 O.2     1  LIG11      -0.2422
      8 C          -3.7634    3.4698    0.8568 C.2     1  LIG11       0.2916
      9 C          -0.1858    5.9188   -0.5421 C.3     1  LIG11      -0.0481
     10 C          -1.4535    6.6620   -0.9267 C.3     1  LIG11      -0.0481
     11 C          -3.9464    1.2442   -0.3007 C.3     1  LIG11       0.1137
     12 C          -4.8707    3.1639    1.8406 C.3     1  LIG11       0.0509
     13 C          -4.4200    0.9523   -1.7026 C.ar    1  LIG11      -0.0073
     14 C          -5.0263    4.1689    2.9818 C.3     1  LIG11      -0.0424
     15 C          -5.5837    1.5260   -2.2230 C.ar    1  LIG11      -0.0491
     16 C          -3.6894    0.1049   -2.5234 C.ar    1  LIG11      -0.0544
     17 C          -5.6841    5.4806    2.5483 C.3     1  LIG11      -0.0554
     18 C          -6.0580    1.2254   -3.5309 C.ar    1  LIG11      -0.0138
     19 C          -4.1403   -0.1847   -3.8127 C.ar    1  LIG11      -0.0533
     20 C          -5.8938    6.4068    3.7372 C.3     1  LIG11      -0.0653
     21 C          -5.3458    0.3019   -4.3445 C.ar    1  LIG11      -0.0106
     22 C          -7.2516    2.0454   -3.9925 C.3     1  LIG11       0.0732
     23 C          -5.7491   -0.1114   -5.7243 C.ar    1  LIG11       0.0091
     24 O          -8.2747    1.2671   -4.5985 O.3     1  LIG11      -0.3754
     25 C          -5.9215   -1.4362   -6.2077 C.ar    1  LIG11       0.1162
     26 C          -5.9512    0.9133   -6.6795 C.ar    1  LIG11      -0.0521
     27 C          -9.4155    2.0482   -4.9574 C.3     1  LIG11       0.0453
     28 S          -5.4945   -2.9255   -5.3005 S.O2    1  LIG11       0.0741
     29 C          -6.4075   -1.6816   -7.5086 C.ar    1  LIG11      -0.0345
     30 C          -6.4039    0.6599   -7.9809 C.ar    1  LIG11      -0.0611
     31 C          -9.1945    2.8381   -6.2375 C.3     1  LIG11      -0.0416
     32 N          -3.8238   -3.0788   -5.5348 N.pl3   1  LIG11      -0.1965
     33 O          -5.6802   -2.6956   -3.8817 O.2     1  LIG11      -0.1499
     34 O          -6.1512   -4.0642   -5.9202 O.2     1  LIG11      -0.1499
     35 C          -6.6549   -0.6377   -8.3894 C.ar    1  LIG11      -0.0599
     36 C          -3.2453   -2.7953   -6.7690 C.ar    1  LIG11       0.1837
     37 C          -2.1731   -1.8877   -7.0056 C.ar    1  LIG11       0.0342
     38 N          -3.6494   -3.3715   -7.9024 N.ar    1  LIG11      -0.0614
     39 C          -1.9941   -1.9471   -8.3723 C.ar    1  LIG11       0.1390
     40 C          -1.4478   -1.0008   -6.0683 C.3     1  LIG11      -0.0330
     41 O          -2.8627   -2.8443   -8.9038 O.2     1  LIG11      -0.3578
     42 C          -1.1009   -1.2547   -9.3202 C.3     1  LIG11      -0.0034
@<TRIPOS>BOND
     1     1     5    1
     2     1     4    1
     3     1     2    1
     4     1     3    1
     5     2     6   am
     6     2     7    2
     7     3     8    2
     8     4     9    1
     9     5    10    1
    10     6     8    1
    11     6    11    1
    12     8    12    1
    13     9    10    1
    14    11    13    1
    15    12    14    1
    16    13    15   ar
    17    13    16   ar
    18    14    17    1
    19    15    18   ar
    20    16    19   ar
    21    17    20    1
    22    18    21   ar
    23    18    22    1
    24    19    21   ar
    25    21    23    1
    26    22    24    1
    27    23    26   ar
    28    23    25   ar
    29    24    27    1
    30    25    29   ar
    31    25    28    1
    32    26    30   ar
    33    27    31    1
    34    28    34    2
    35    28    33    2
    36    28    32    1
    37    29    35   ar
    38    30    35   ar
    39    32    36    1
    40    36    37   ar
    41    36    38   ar
    42    37    39   ar
    43    37    40    1
    44    38    41   ar
    45    39    41   ar
    46    39    42    1
@<TRIPOS>MOLECULE
../ET1/ET1_17-21_50CONFORMERS.pdb
 47 48 0 0 0
SMALL
GASTEIGER

@<TRIPOS>ATOM
      1  N         -4.2010   -0.1720   -1.7670 N.3    17  LEU17      -0.1231
      2  CA        -5.4580   -0.8500   -1.9110 C.3    17  LEU17       0.1693
      3  CB        -5.6560   -2.0130   -0.9140 C.3    17  LEU17       0.0284
      4  CG        -7.0430   -2.5080   -0.6020 C.3    17  LEU17       0.0019
      5  CD1       -7.7900   -3.0040   -1.8120 C.3    17  LEU17       0.0001
      6  CD2       -7.1720   -3.5500    0.4900 C.3    17  LEU17       0.0001
      7  C         -6.6890    0.1240   -1.9280 C.2    17  LEU17       0.2592
      8  O         -7.5330    0.1470   -2.8350 O.2    17  LEU17      -0.2718
      9  N         -6.7310    1.0230   -0.9570 N.am   18  ASP18      -0.1960
     10  CA        -7.8670    2.0040   -0.9130 C.3    18  ASP18       0.1840
     11  CB        -8.8680    1.4860    0.1670 C.3    18  ASP18       0.1450
     12  CG       -10.2320    2.1200   -0.0550 C.2    18  ASP18       0.3671
     13  OD1      -10.8920    1.6370   -1.0120 O.co2  18  ASP18      -0.2456
     14  OD2      -10.6300    3.0590    0.6490 O.co2  18  ASP18      -0.2456
     15  C         -7.4570    3.4490   -0.4690 C.2    18  ASP18       0.2622
     16  O         -7.5790    4.4230   -1.2060 O.2    18  ASP18      -0.2715
     17  N         -6.7830    3.6660    0.6670 N.am   19  ILE19      -0.1963
     18  CA        -6.4730    4.9620    1.2510 C.3    19  ILE19       0.1727
     19  CB        -5.9660    4.7960    2.7400 C.3    19  ILE19       0.0290
     20  CG2       -4.6800    4.0440    2.8270 C.3    19  ILE19       0.0023
     21  CG1       -5.7570    6.1350    3.5640 C.3    19  ILE19       0.0022
     22  CD1       -6.9460    7.0030    3.7030 C.3    19  ILE19       0.0001
     23  C         -5.5000    5.7810    0.3390 C.2    19  ILE19       0.2616
     24  O         -5.7690    6.9650   -0.0340 O.2    19  ILE19      -0.2715
     25  N         -4.4450    5.0980   -0.2040 N.am   20  ILE20      -0.1963
     26  CA        -3.7630    5.4400   -1.4580 C.3    20  ILE20       0.1727
     27  CB        -2.2100    5.4370   -1.2690 C.3    20  ILE20       0.0290
     28  CG2       -1.8610    6.5760   -0.2560 C.3    20  ILE20       0.0023
     29  CG1       -1.5260    4.1100   -0.9140 C.3    20  ILE20       0.0022
     30  CD1       -0.0200    4.2560   -0.6990 C.3    20  ILE20       0.0001
     31  C         -4.2760    4.3340   -2.4360 C.2    20  ILE20       0.2617
     32  O         -4.0530    3.1690   -2.2790 O.2    20  ILE20      -0.2715
     33  N         -4.9410    4.8110   -3.4460 N.am   21  TRP21      -0.1941
     34  CA        -5.4130    4.0870   -4.6560 C.3    21  TRP21       0.1982
     35  CB        -6.7280    3.3830   -4.1640 C.3    21  TRP21       0.0394
     36  CG        -7.1910    2.3800   -5.1940 C.3    21  TRP21       0.0475
     37  CD1       -8.2010    2.5130   -6.1000 C.3    21  TRP21       0.1166
     38  NE1       -8.2490    1.3760   -6.9010 N.pl3  21  TRP21      -0.2376
     39  CE2       -7.1040    0.6070   -6.6890 C.ar   21  TRP21       0.0614
     40  CZ2       -6.5890   -0.5400   -7.3230 C.ar   21  TRP21       0.0158
     41  CH2       -5.3990   -1.1090   -6.8770 C.ar   21  TRP21       0.0013
     42  CZ3       -4.8390   -0.5650   -5.6710 C.ar   21  TRP21      -0.0002
     43  CE3       -5.4260    0.5390   -4.9710 C.ar   21  TRP21      -0.0030
     44  CD2       -6.4960    1.1980   -5.5550 C.ar   21  TRP21      -0.0059
     45  C         -5.6750    5.0260   -5.8140 C.2    21  TRP21       0.3842
     46  O         -6.3400    6.0940   -5.6060 O.co2  21  TRP21      -0.2437
     47  OXT       -5.1860    4.6870   -6.9310 O.co2  21  TRP21      -0.2437
@<TRIPOS>BOND
     1    40    41   ar
     2    40    39   ar
     3    41    42   ar
     4    39    38    1
     5    39    44   ar
     6    42    43   ar
     7    38    37    1
     8    43    44   ar
     9    44    36    1
    10    37    36    1
    11    36    35    1
    12    47    45   ar
    13     5     4    1
    14    35    34    1
    15    45    34    1
    16    45    46   ar
    17    34    33    1
    18     8     7    2
    19     4     6    1
    20     4     3    1
    21     2     3    1
    22     2     1    1
    23     2     7    1
    24     7     9   am
    25    33    31   am
    26    32    31    2
    27    31    26    1
    28     9    10    1
    29    10    11    1
    30    10    15    1
    31    26    27    1
    32    26    25    1
    33    11    12    1
    34    13    12   ar
    35    27    29    1
    36    27    28    1
    37    29    30    1
    38    16    15    2
    39    15    17   am
    40    12    14   ar
    41    25    23   am
    42    17    18    1
    43    23    24    2
    44    23    18    1
    45    18    19    1
    46    19    21    1
    47    19    20    1
    48    21    22    1
