@<TRIPOS>MOLECULE
../ET1/ET1_17-21_50CONFORMERS_NOBACKBONE.pdb
 26 23 0 0 0
SMALL
GASTEIGER

@<TRIPOS>ATOM
      1  CB        -6.1150   -1.4830   -0.5580 C.3    17  LEU17       0.0000
      2  CG        -7.4710   -2.1900   -0.5490 C.3    17  LEU17       0.0000
      3  CD1       -7.5650   -3.1290   -1.8160 C.3    17  LEU17       0.0000
      4  CD2       -7.6340   -3.0650    0.7330 C.3    17  LEU17       0.0000
      5  CB        -9.5330    1.3370    0.3720 C.3    18  ASP18       0.1258
      6  CG       -10.8210    2.1240    0.3740 C.2    18  ASP18       0.3654
      7  OD1      -11.4060    2.2040   -0.7190 O.co2  18  ASP18      -0.2456
      8  OD2      -11.1770    2.7140    1.4220 O.co2  18  ASP18      -0.2456
      9  CB        -5.4130    4.6360    2.5530 C.3    19  ILE19       0.0000
     10  CG2       -4.5050    5.7520    2.8080 C.3    19  ILE19       0.0000
     11  CG1       -6.1410    4.2180    3.8750 C.3    19  ILE19       0.0000
     12  CD1       -5.2560    3.8010    5.0260 C.3    19  ILE19       0.0000
     13  CB        -2.5150    4.5890   -1.3610 C.3    20  ILE20       0.0000
     14  CG2       -1.7230    4.4030   -2.6660 C.3    20  ILE20       0.0000
     15  CG1       -1.9230    5.6330   -0.4200 C.3    20  ILE20       0.0000
     16  CD1       -0.4510    5.5540   -0.0730 C.3    20  ILE20       0.0000
     17  CB        -7.4330    4.0930   -4.5870 C.3    21  TRP21       0.0066
     18  CG        -8.2260    3.2200   -5.4930 C.3    21  TRP21       0.0452
     19  CD1       -9.3870    3.6160   -6.0840 C.3    21  TRP21       0.1165
     20  NE1       -9.8600    2.5750   -6.9160 N.pl3  21  TRP21      -0.2376
     21  CE2       -8.9610    1.5660   -6.9710 C.ar   21  TRP21       0.0614
     22  CZ2       -8.8830    0.4700   -7.8450 C.ar   21  TRP21       0.0158
     23  CH2       -7.7910   -0.4630   -7.6930 C.ar   21  TRP21       0.0013
     24  CZ3       -6.8610   -0.2860   -6.7140 C.ar   21  TRP21      -0.0002
     25  CE3       -6.8910    0.8700   -5.9240 C.ar   21  TRP21      -0.0030
     26  CD2       -7.9350    1.8700   -5.9810 C.ar   21  TRP21      -0.0059
@<TRIPOS>BOND
     1    22    23   ar
     2    22    21   ar
     3    23    24   ar
     4    21    20    1
     5    21    26   ar
     6    24    25   ar
     7    20    19    1
     8    25    26   ar
     9    26    18    1
    10    19    18    1
    11    18    17    1
    12     3     2    1
    13     2     4    1
    14     2     1    1
    15     5     6    1
    16     7     6   ar
    17    13    15    1
    18    13    14    1
    19    15    16    1
    20     6     8   ar
    21     9    11    1
    22     9    10    1
    23    11    12    1
@<TRIPOS>MOLECULE
23693553
 46 48 0 0 0
SMALL
GASTEIGER

@<TRIPOS>ATOM
      1 O          -5.9236    3.4987   -0.4209 O.2     1  LIG11      -0.2526
      2 O          -4.0218    4.7138   -3.1141 O.2     1  LIG11      -0.2731
      3 O          -6.5982    1.7823   -2.8664 O.2     1  LIG11      -0.2689
      4 O          -2.1334   -0.2012   -2.6112 O.co2   1  LIG11      -0.5479
      5 OXT        -3.1207    1.1546   -4.1667 O.co2   1  LIG11      -0.5479
      6 O          -6.6556   -3.0134   -7.3123 O.3     1  LIG11      -0.4515
      7 O          -5.0309   -2.3423   -5.8142 O.2     1  LIG11      -0.2227
      8 N          -5.7228    3.9345    1.8307 N.am    1  LIG11      -0.2801
      9 N          -4.0766    4.5803    0.2595 N.am    1  LIG11      -0.2879
     10 N          -4.4682    2.5800   -2.4192 N.am    1  LIG11      -0.2273
     11 N          -4.2906    2.9211   -5.3366 N.3     1  LIG11       0.2276
     12 N          -6.6242   -0.8568   -6.5368 N.ar    1  LIG11      -0.2526
     13 C          -5.0558    4.6776    2.9311 C.3     1  LIG11       0.0249
     14 C          -6.6161    2.7740    2.1330 C.3     1  LIG11       0.0249
     15 C          -5.5740    4.3847    4.3444 C.3     1  LIG11      -0.0344
     16 C          -6.9449    2.5240    3.6141 C.3     1  LIG11      -0.0344
     17 C          -5.8175    2.9064    4.5430 C.3     1  LIG11      -0.0497
     18 CA         -3.1988    4.1974   -0.8684 C.3     1  LIG11       0.1019
     19 C          -0.9438    5.5475   -0.2757 C.3     1  LIG11      -0.0356
     20 C          -2.2142    5.3720   -1.1607 C.3     1  LIG11      -0.0210
     21 C          -5.2821    3.9829    0.5018 C.2     1  LIG11       0.3033
     22 C          -5.1501    6.1972    2.7154 C.3     1  LIG11      -0.0464
     23 C          -7.9604    2.8083    1.3798 C.3     1  LIG11      -0.0464
     24 C          -3.9296    3.8531   -2.2251 C.2     1  LIG11       0.2429
     25 C          -0.0261    4.3179   -0.3761 C.3     1  LIG11      -0.0600
     26 C          -1.2676    5.8157    1.2001 C.3     1  LIG11      -0.0600
     27 C          -0.1709    6.7712   -0.8198 C.3     1  LIG11      -0.0600
     28 CA         -3.8164    1.3422   -1.8899 C.3     1  LIG11       0.0730
     29 C          -4.7059    0.3998   -1.0566 C.3     1  LIG11      -0.0286
     30 C          -5.6006    2.4087   -3.2264 C.2     1  LIG11       0.2708
     31 CA         -5.5831    3.1081   -4.6052 C.3     1  LIG11       0.0579
     32 C          -5.3600   -0.7793   -1.7884 C.3     1  LIG11      -0.0513
     33 C          -6.7757    2.7413   -5.4983 C.3     1  LIG11       0.0261
     34 C          -2.9570    0.6617   -2.9979 C.2     1  LIG11       0.0626
     35 C          -6.8911    1.3541   -6.0606 C.ar    1  LIG11      -0.0158
     36 C          -6.1243   -1.7188   -0.8452 C.3     1  LIG11      -0.0558
     37 C          -7.9452    0.9330   -6.9320 C.ar    1  LIG11       0.0038
     38 C          -6.1127    0.2408   -5.8442 C.ar    1  LIG11       0.0202
     39 C          -7.7739   -0.4294   -7.2122 C.ar    1  LIG11       0.0598
     40 C          -7.2193   -1.0403   -0.0347 C.3     1  LIG11      -0.0653
     41 C          -9.0535    1.6144   -7.4856 C.ar    1  LIG11      -0.0523
     42 C          -8.6985   -1.1136   -8.0293 C.ar    1  LIG11      -0.0371
     43 C          -9.9640    0.9342   -8.2956 C.ar    1  LIG11      -0.0611
     44 C          -6.0207   -2.1354   -6.5012 C.2     1  LIG11       0.4196
     45 C          -9.7867   -0.4150   -8.5610 C.ar    1  LIG11      -0.0598
     46 C          -6.0806   -4.3210   -7.3506 C.3     1  LIG11       0.0835
@<TRIPOS>BOND
     1     1    21    2
     2     2    24    2
     3     3    30    2
     4     4    34   ar
     5     5    34   ar
     6     6    44    1
     7     6    46    1
     8     7    44    2
     9     8    13    1
    10     8    14    1
    11     9    21   am
    12    10    24   am
    13    10    30   am
    14    12    39   ar
    15    12    38   ar
    16    12    44   am
    17    13    15    1
    18    13    22    1
    19    14    16    1
    20    14    23    1
    21    15    17    1
    22    16    17    1
    23    18     9    1
    24    18    24    1
    25    18    20    1
    26    19    20    1
    27    19    27    1
    28    19    26    1
    29    19    25    1
    30    21     8   am
    31    28    34    1
    32    28    29    1
    33    28    10    1
    34    29    32    1
    35    31    33    1
    36    31    11    1
    37    31    30    1
    38    32    36    1
    39    33    35    1
    40    35    38   ar
    41    35    37   ar
    42    36    40    1
    43    37    39   ar
    44    37    41   ar
    45    39    42   ar
    46    41    43   ar
    47    42    45   ar
    48    43    45   ar
@<TRIPOS>MOLECULE
../ET1/ET1_17-21_50CONFORMERS.pdb
 47 48 0 0 0
SMALL
GASTEIGER

@<TRIPOS>ATOM
      1  N         -4.5950    0.2540   -1.3750 N.3    17  LEU17      -0.1231
      2  CA        -5.8680   -0.4060   -1.6470 C.3    17  LEU17       0.1693
      3  CB        -6.1150   -1.4830   -0.5580 C.3    17  LEU17       0.0284
      4  CG        -7.4710   -2.1900   -0.5490 C.3    17  LEU17       0.0019
      5  CD1       -7.5650   -3.1290   -1.8160 C.3    17  LEU17       0.0001
      6  CD2       -7.6340   -3.0650    0.7330 C.3    17  LEU17       0.0001
      7  C         -6.9860    0.6360   -1.6690 C.2    17  LEU17       0.2592
      8  O         -7.6340    0.7430   -2.7370 O.2    17  LEU17      -0.2718
      9  N         -7.2970    1.3320   -0.5610 N.am   18  ASP18      -0.1960
     10  CA        -8.4790    2.2020   -0.3870 C.3    18  ASP18       0.1840
     11  CB        -9.5330    1.3370    0.3720 C.3    18  ASP18       0.1450
     12  CG       -10.8210    2.1240    0.3740 C.2    18  ASP18       0.3671
     13  OD1      -11.4060    2.2040   -0.7190 O.co2  18  ASP18      -0.2456
     14  OD2      -11.1770    2.7140    1.4220 O.co2  18  ASP18      -0.2456
     15  C         -8.0910    3.5840    0.1800 C.2    18  ASP18       0.2622
     16  O         -8.7800    4.5590   -0.1210 O.2    18  ASP18      -0.2715
     17  N         -7.0700    3.6540    1.0290 N.am   19  ILE19      -0.1963
     18  CA        -6.3960    4.9150    1.3660 C.3    19  ILE19       0.1727
     19  CB        -5.4130    4.6360    2.5530 C.3    19  ILE19       0.0290
     20  CG2       -4.5050    5.7520    2.8080 C.3    19  ILE19       0.0023
     21  CG1       -6.1410    4.2180    3.8750 C.3    19  ILE19       0.0022
     22  CD1       -5.2560    3.8010    5.0260 C.3    19  ILE19       0.0001
     23  C         -5.6610    5.3990    0.0870 C.2    19  ILE19       0.2616
     24  O         -5.9120    6.4560   -0.4040 O.2    19  ILE19      -0.2715
     25  N         -4.7450    4.5400   -0.4380 N.am   20  ILE20      -0.1963
     26  CA        -4.0060    4.7800   -1.6650 C.3    20  ILE20       0.1727
     27  CB        -2.5150    4.5890   -1.3610 C.3    20  ILE20       0.0290
     28  CG2       -1.7230    4.4030   -2.6660 C.3    20  ILE20       0.0023
     29  CG1       -1.9230    5.6330   -0.4200 C.3    20  ILE20       0.0022
     30  CD1       -0.4510    5.5540   -0.0730 C.3    20  ILE20       0.0001
     31  C         -4.6610    4.0040   -2.7590 C.2    20  ILE20       0.2617
     32  O         -4.6370    2.7640   -2.7060 O.2    20  ILE20      -0.2715
     33  N         -5.1840    4.7980   -3.7140 N.am   21  TRP21      -0.1941
     34  CA        -5.9280    4.3140   -4.9110 C.3    21  TRP21       0.1982
     35  CB        -7.4330    4.0930   -4.5870 C.3    21  TRP21       0.0394
     36  CG        -8.2260    3.2200   -5.4930 C.3    21  TRP21       0.0475
     37  CD1       -9.3870    3.6160   -6.0840 C.3    21  TRP21       0.1166
     38  NE1       -9.8600    2.5750   -6.9160 N.pl3  21  TRP21      -0.2376
     39  CE2       -8.9610    1.5660   -6.9710 C.ar   21  TRP21       0.0614
     40  CZ2       -8.8830    0.4700   -7.8450 C.ar   21  TRP21       0.0158
     41  CH2       -7.7910   -0.4630   -7.6930 C.ar   21  TRP21       0.0013
     42  CZ3       -6.8610   -0.2860   -6.7140 C.ar   21  TRP21      -0.0002
     43  CE3       -6.8910    0.8700   -5.9240 C.ar   21  TRP21      -0.0030
     44  CD2       -7.9350    1.8700   -5.9810 C.ar   21  TRP21      -0.0059
     45  C         -5.7590    5.3050   -6.0770 C.2    21  TRP21       0.3842
     46  O         -5.6460    4.8080   -7.2450 O.co2  21  TRP21      -0.2437
     47  OXT       -5.7750    6.5610   -5.9010 O.co2  21  TRP21      -0.2437
@<TRIPOS>BOND
     1    40    41   ar
     2    40    39   ar
     3    41    42   ar
     4    39    38    1
     5    39    44   ar
     6    42    43   ar
     7    38    37    1
     8    43    44   ar
     9    44    36    1
    10    37    36    1
    11    36    35    1
    12    47    45   ar
    13     5     4    1
    14    35    34    1
    15    45    34    1
    16    45    46   ar
    17    34    33    1
    18     8     7    2
    19     4     6    1
    20     4     3    1
    21     2     3    1
    22     2     1    1
    23     2     7    1
    24     7     9   am
    25    33    31   am
    26    32    31    2
    27    31    26    1
    28     9    10    1
    29    10    11    1
    30    10    15    1
    31    26    27    1
    32    26    25    1
    33    11    12    1
    34    13    12   ar
    35    27    29    1
    36    27    28    1
    37    29    30    1
    38    16    15    2
    39    15    17   am
    40    12    14   ar
    41    25    23   am
    42    17    18    1
    43    23    24    2
    44    23    18    1
    45    18    19    1
    46    19    21    1
    47    19    20    1
    48    21    22    1
