@<TRIPOS>MOLECULE
../ET1/ET1_17-21_50CONFORMERS_NOBACKBONE.pdb
 26 23 0 0 0
SMALL
GASTEIGER

@<TRIPOS>ATOM
      1  CB        -5.6870   -2.2030   -1.4760 C.3    17  LEU17       0.0000
      2  CG        -6.5780   -3.3140   -2.1060 C.3    17  LEU17       0.0000
      3  CD1       -6.0780   -4.7200   -1.7540 C.3    17  LEU17       0.0000
      4  CD2       -7.9710   -3.2500   -1.5330 C.3    17  LEU17       0.0000
      5  CB        -9.0070   -0.0240    0.9260 C.3    18  ASP18       0.1258
      6  CG       -10.4570    0.5020    1.1290 C.2    18  ASP18       0.3654
      7  OD1      -10.7880    1.0320    2.1910 O.co2  18  ASP18      -0.2456
      8  OD2      -11.3330    0.4370    0.1930 O.co2  18  ASP18      -0.2456
      9  CB        -6.0580    3.8070    3.2370 C.3    19  ILE19       0.0000
     10  CG2       -6.1200    5.1280    4.0000 C.3    19  ILE19       0.0000
     11  CG1       -6.2000    2.5800    4.1980 C.3    19  ILE19       0.0000
     12  CD1       -7.5130    2.2700    4.8390 C.3    19  ILE19       0.0000
     13  CB        -3.0330    5.5560   -0.3510 C.3    20  ILE20       0.0000
     14  CG2       -2.9020    5.6830    1.2090 C.3    20  ILE20       0.0000
     15  CG1       -2.0950    4.4450   -0.8000 C.3    20  ILE20       0.0000
     16  CD1       -0.5490    4.7620   -0.5950 C.3    20  ILE20       0.0000
     17  CB        -6.4080    6.1050   -4.8300 C.3    21  TRP21       0.0066
     18  CG        -7.5590    5.3200   -4.2360 C.3    21  TRP21       0.0452
     19  CD1       -7.7000    5.1690   -2.9040 C.3    21  TRP21       0.1165
     20  NE1       -8.7800    4.3450   -2.6470 N.pl3  21  TRP21      -0.2376
     21  CE2       -9.3070    3.8490   -3.8480 C.ar   21  TRP21       0.0614
     22  CZ2      -10.3620    2.9460   -4.1440 C.ar   21  TRP21       0.0158
     23  CH2      -10.7140    2.7930   -5.4900 C.ar   21  TRP21       0.0013
     24  CZ3       -9.9390    3.3610   -6.4570 C.ar   21  TRP21      -0.0002
     25  CE3       -8.8750    4.2800   -6.1570 C.ar   21  TRP21      -0.0030
     26  CD2       -8.6280    4.5760   -4.8350 C.ar   21  TRP21      -0.0059
@<TRIPOS>BOND
     1    22    23   ar
     2    22    21   ar
     3    23    24   ar
     4    21    20    1
     5    21    26   ar
     6    24    25   ar
     7    20    19    1
     8    25    26   ar
     9    26    18    1
    10    19    18    1
    11    18    17    1
    12     3     2    1
    13     2     4    1
    14     2     1    1
    15     5     6    1
    16     7     6   ar
    17    13    15    1
    18    13    14    1
    19    15    16    1
    20     6     8   ar
    21     9    11    1
    22     9    10    1
    23    11    12    1
@<TRIPOS>MOLECULE
123882
 66 71 0 0 0
SMALL
GASTEIGER

@<TRIPOS>ATOM
      1 S          -5.9369    2.7555   -5.6425 S.2     3  UNK33      -0.0993
      2 O          -8.3885    2.7740    5.5029 O.2     1  UNK11      -0.2755
      3 O          -9.0145   -2.6867   -3.0003 O.2     4  LEU44      -0.2738
      4 O          -6.7729    4.6976    1.3322 O.2     1  UNK11      -0.2737
      5 O          -8.2517    0.5655   -0.7509 O.2     5  TRP55      -0.2738
      6 O          -9.9381    2.6263    1.6636 O.2     6  ASP66      -0.2738
      7 O          -4.8810   -0.4992   -4.8749 O.2     3  UNK33      -0.2734
      8 O          -4.7894    0.6699   -0.8208 O.2     2  ASP22      -0.2737
      9 OD1       -11.7398   -1.8305    1.1792 O.co2   6  ASP66      -0.5497
     10 OD2       -11.1049   -2.4450    3.2898 O.co2   6  ASP66      -0.5497
     11 OD1        -3.4090    1.8138    2.0720 O.co2   2  ASP22      -0.5497
     12 OD2        -1.7078    2.0157    0.5488 O.co2   2  ASP22      -0.5497
     13 N          -6.3611    2.3275    6.4574 N.am    1  UNK11      -0.2984
     14 N          -5.0846    3.2216    8.8964 N.pl3   1  UNK11      -0.3269
     15 N          -8.0406    1.6536    2.5213 N.am    1  UNK11      -0.3020
     16 N          -8.9237   -0.4047   -3.1310 N.am    5  TRP55      -0.3022
     17 N          -6.2831   -0.2824   -3.0839 N.am    4  LEU44      -0.3022
     18 N         -10.3011    0.1634    0.1995 N.am    6  ASP66      -0.3021
     19 N          -5.8329    2.6270    1.0518 N.am    2  ASP22      -0.3021
     20 N          -5.1402    2.2715   -2.3959 N.am    3  UNK33      -0.2984
     21 NE1        -9.3955    4.2685   -2.8768 N.ar    5  TRP55      -0.3604
     22 C          -4.9132    2.5775    6.4747 C.3     1  UNK11       0.0304
     23 C          -6.9710    2.0139    7.7498 C.3     1  UNK11       0.0304
     24 C          -4.3000    2.4745    7.8848 C.3     1  UNK11       0.0280
     25 C          -6.5627    3.0405    8.8161 C.3     1  UNK11       0.0280
     26 C          -7.1728    2.6397    5.3741 C.2     1  UNK11       0.2179
     27 C          -6.4643    2.8076    4.0423 C.3     1  UNK11       0.0510
     28 C          -7.4433    2.9424    2.8780 C.3     1  UNK11       0.1076
     29 CA         -6.7989   -1.6600   -3.1555 C.3     4  LEU44       0.0997
     30 CB         -6.1514   -2.4698   -2.0135 C.3     4  LEU44      -0.0236
     31 CA        -10.0496   -0.1412   -2.2338 C.3     5  TRP55       0.1034
     32 C          -4.7032    4.5096    9.2902 C.ar    1  UNK11       0.0298
     33 CG         -6.4399   -3.9827   -1.9570 C.3     4  LEU44      -0.0446
     34 CB        -10.9945    0.9467   -2.7559 C.3     5  TRP55       0.0013
     35 C          -8.3428   -1.6600   -3.0702 C.2     4  LEU44       0.2340
     36 CA         -9.7590    0.1859    1.5559 C.3     6  ASP66       0.1045
     37 C          -6.6922    3.5133    1.6617 C.2     1  UNK11       0.2344
     38 CG        -10.3466    2.2606   -3.0955 C.ar    5  TRP55      -0.0201
     39 C          -9.4342    0.2301   -0.8666 C.2     5  TRP55       0.2343
     40 C          -9.2741    1.6146    1.8916 C.2     6  ASP66       0.2343
     41 CA         -4.9929    3.0007   -0.0637 C.3     2  ASP22       0.1045
     42 CD2        -6.0986   -4.6995   -3.2614 C.3     4  LEU44      -0.0626
     43 CD1        -5.6553   -4.6116   -0.7993 C.3     4  LEU44      -0.0626
     44 C          -4.5879    1.5014   -3.5007 C.3     3  UNK33       0.1311
     45 C          -5.2204    5.0520   10.4815 C.ar    1  UNK11      -0.0407
     46 C          -3.8263    5.3177    8.5548 C.ar    1  UNK11      -0.0407
     47 CD2       -10.0817    2.7940   -4.3994 C.ar    5  TRP55       0.0029
     48 C          -5.2617    0.1544   -3.8997 C.2     3  UNK33       0.2390
     49 CB        -10.7970   -0.2120    2.6002 C.3     6  ASP66       0.0138
     50 CD1        -9.9174    3.2101   -2.1879 C.ar    5  TRP55       0.0060
     51 CE2        -9.5088    4.0565   -4.2311 C.ar    5  TRP55       0.0467
     52 C          -4.9566    1.8546   -1.0928 C.2     2  ASP22       0.2345
     53 CB         -3.5862    3.4118    0.3426 C.3     2  ASP22       0.0138
     54 C          -4.8962    6.3433   10.9092 C.ar    1  UNK11      -0.0600
     55 C          -3.5015    6.6147    8.9732 C.ar    1  UNK11      -0.0600
     56 C          -4.5479    2.4562   -4.6788 C.ar    3  UNK33       0.0189
     57 CE3       -10.2838    2.3222   -5.7133 C.ar    5  TRP55      -0.0523
     58 C          -4.0376    7.1283   10.1495 C.ar    1  UNK11      -0.0616
     59 CZ2        -9.1455    4.8749   -5.3088 C.ar    5  TRP55      -0.0378
     60 CG        -11.2511   -1.6367    2.3338 C.2     6  ASP66       0.0440
     61 CZ3        -9.9241    3.1265   -6.8018 C.ar    5  TRP55      -0.0611
     62 C          -3.4911    3.2623   -5.0666 C.ar    3  UNK33      -0.0493
     63 CH2        -9.3679    4.3865   -6.5995 C.ar    5  TRP55      -0.0598
     64 CG         -2.8379    2.2846    1.0451 C.2     2  ASP22       0.0440
     65 C          -3.8246    4.1167   -6.1565 C.ar    3  UNK33      -0.0544
     66 C          -5.1240    3.9363   -6.5712 C.ar    3  UNK33      -0.0240
@<TRIPOS>BOND
     1     1    56   ar
     2     1    66   ar
     3     2    26    2
     4     3    35    2
     5     4    37    2
     6     5    39    2
     7     6    40    2
     8     7    48    2
     9     8    52    2
    10     9    60   ar
    11    10    60   ar
    12    11    64   ar
    13    12    64   ar
    14    13    22    1
    15    13    23    1
    16    14    24    1
    17    14    25    1
    18    14    32    1
    19    15    28    1
    20    15    40   am
    21    16    35   am
    22    16    31    1
    23    17    48   am
    24    17    29    1
    25    18    39   am
    26    18    36    1
    27    19    37   am
    28    19    41    1
    29    20    52   am
    30    20    44    1
    31    21    50   ar
    32    21    51   ar
    33    22    24    1
    34    23    25    1
    35    26    27    1
    36    26    13   am
    37    28    37    1
    38    28    27    1
    39    29    35    1
    40    29    30    1
    41    30    33    1
    42    31    39    1
    43    31    34    1
    44    32    45   ar
    45    32    46   ar
    46    33    43    1
    47    33    42    1
    48    34    38    1
    49    36    40    1
    50    36    49    1
    51    38    47   ar
    52    38    50   ar
    53    41    52    1
    54    41    53    1
    55    44    48    1
    56    44    56    1
    57    45    54   ar
    58    46    55   ar
    59    47    57   ar
    60    47    51   ar
    61    49    60    1
    62    51    59   ar
    63    53    64    1
    64    54    58   ar
    65    55    58   ar
    66    56    62   ar
    67    57    61   ar
    68    59    63   ar
    69    61    63   ar
    70    62    65   ar
    71    65    66   ar
@<TRIPOS>MOLECULE
../ET1/ET1_17-21_50CONFORMERS.pdb
 47 48 0 0 0
SMALL
GASTEIGER

@<TRIPOS>ATOM
      1  N         -4.5760   -0.0490   -1.7820 N.3    17  LEU17      -0.1231
      2  CA        -5.7320   -0.8580   -2.1940 C.3    17  LEU17       0.1693
      3  CB        -5.6870   -2.2030   -1.4760 C.3    17  LEU17       0.0284
      4  CG        -6.5780   -3.3140   -2.1060 C.3    17  LEU17       0.0019
      5  CD1       -6.0780   -4.7200   -1.7540 C.3    17  LEU17       0.0001
      6  CD2       -7.9710   -3.2500   -1.5330 C.3    17  LEU17       0.0001
      7  C         -7.0000   -0.1040   -1.9690 C.2    17  LEU17       0.2592
      8  O         -7.7400    0.1890   -2.9100 O.2    17  LEU17      -0.2718
      9  N         -7.1900    0.2290   -0.6930 N.am   18  ASP18      -0.1960
     10  CA        -8.3770    0.8560   -0.1390 C.3    18  ASP18       0.1840
     11  CB        -9.0070   -0.0240    0.9260 C.3    18  ASP18       0.1450
     12  CG       -10.4570    0.5020    1.1290 C.2    18  ASP18       0.3671
     13  OD1      -10.7880    1.0320    2.1910 O.co2  18  ASP18      -0.2456
     14  OD2      -11.3330    0.4370    0.1930 O.co2  18  ASP18      -0.2456
     15  C         -8.1020    2.2830    0.4170 C.2    18  ASP18       0.2622
     16  O         -8.8910    3.2070    0.1090 O.2    18  ASP18      -0.2715
     17  N         -7.1560    2.4620    1.3530 N.am   19  ILE19      -0.1963
     18  CA        -6.8660    3.8040    1.9540 C.3    19  ILE19       0.1727
     19  CB        -6.0580    3.8070    3.2370 C.3    19  ILE19       0.0290
     20  CG2       -6.1200    5.1280    4.0000 C.3    19  ILE19       0.0023
     21  CG1       -6.2000    2.5800    4.1980 C.3    19  ILE19       0.0022
     22  CD1       -7.5130    2.2700    4.8390 C.3    19  ILE19       0.0001
     23  C         -6.2200    4.7890    0.8990 C.2    19  ILE19       0.2616
     24  O         -6.7400    5.9170    0.7130 O.2    19  ILE19      -0.2715
     25  N         -5.1080    4.3940    0.2390 N.am   20  ILE20      -0.1963
     26  CA        -4.4730    5.2890   -0.7870 C.3    20  ILE20       0.1727
     27  CB        -3.0330    5.5560   -0.3510 C.3    20  ILE20       0.0290
     28  CG2       -2.9020    5.6830    1.2090 C.3    20  ILE20       0.0023
     29  CG1       -2.0950    4.4450   -0.8000 C.3    20  ILE20       0.0022
     30  CD1       -0.5490    4.7620   -0.5950 C.3    20  ILE20       0.0001
     31  C         -4.6710    4.6840   -2.2420 C.2    20  ILE20       0.2617
     32  O         -4.9530    3.5160   -2.4910 O.2    20  ILE20      -0.2715
     33  N         -4.6180    5.5940   -3.2190 N.am   21  TRP21      -0.1941
     34  CA        -5.0230    5.5000   -4.6140 C.3    21  TRP21       0.1982
     35  CB        -6.4080    6.1050   -4.8300 C.3    21  TRP21       0.0394
     36  CG        -7.5590    5.3200   -4.2360 C.3    21  TRP21       0.0475
     37  CD1       -7.7000    5.1690   -2.9040 C.3    21  TRP21       0.1166
     38  NE1       -8.7800    4.3450   -2.6470 N.pl3  21  TRP21      -0.2376
     39  CE2       -9.3070    3.8490   -3.8480 C.ar   21  TRP21       0.0614
     40  CZ2      -10.3620    2.9460   -4.1440 C.ar   21  TRP21       0.0158
     41  CH2      -10.7140    2.7930   -5.4900 C.ar   21  TRP21       0.0013
     42  CZ3       -9.9390    3.3610   -6.4570 C.ar   21  TRP21      -0.0002
     43  CE3       -8.8750    4.2800   -6.1570 C.ar   21  TRP21      -0.0030
     44  CD2       -8.6280    4.5760   -4.8350 C.ar   21  TRP21      -0.0059
     45  C         -3.9680    6.1530   -5.5800 C.2    21  TRP21       0.3842
     46  O         -3.4960    7.2550   -5.2750 O.co2  21  TRP21      -0.2437
     47  OXT       -3.6110    5.4990   -6.5740 O.co2  21  TRP21      -0.2437
@<TRIPOS>BOND
     1    40    41   ar
     2    40    39   ar
     3    41    42   ar
     4    39    38    1
     5    39    44   ar
     6    42    43   ar
     7    38    37    1
     8    43    44   ar
     9    44    36    1
    10    37    36    1
    11    36    35    1
    12    47    45   ar
    13     5     4    1
    14    35    34    1
    15    45    34    1
    16    45    46   ar
    17    34    33    1
    18     8     7    2
    19     4     6    1
    20     4     3    1
    21     2     3    1
    22     2     1    1
    23     2     7    1
    24     7     9   am
    25    33    31   am
    26    32    31    2
    27    31    26    1
    28     9    10    1
    29    10    11    1
    30    10    15    1
    31    26    27    1
    32    26    25    1
    33    11    12    1
    34    13    12   ar
    35    27    29    1
    36    27    28    1
    37    29    30    1
    38    16    15    2
    39    15    17   am
    40    12    14   ar
    41    25    23   am
    42    17    18    1
    43    23    24    2
    44    23    18    1
    45    18    19    1
    46    19    21    1
    47    19    20    1
    48    21    22    1
