@<TRIPOS>MOLECULE
../ET1/ET1_17-21_50CONFORMERS_NOBACKBONE.pdb
 26 23 0 0 0
SMALL
GASTEIGER

@<TRIPOS>ATOM
      1  CB        -5.4380   -1.8950   -2.7790 C.3    17  LEU17       0.0000
      2  CG        -6.7550   -2.6670   -2.9110 C.3    17  LEU17       0.0000
      3  CD1       -7.2850   -2.7210   -4.3400 C.3    17  LEU17       0.0000
      4  CD2       -6.8480   -4.0480   -2.2330 C.3    17  LEU17       0.0000
      5  CB        -9.1740    0.7080   -0.6200 C.3    18  ASP18       0.1258
      6  CG       -10.4840    1.3320   -0.0080 C.2    18  ASP18       0.3654
      7  OD1      -10.9350    2.3810   -0.5440 O.co2  18  ASP18      -0.2456
      8  OD2      -10.9480    0.9000    1.0780 O.co2  18  ASP18      -0.2456
      9  CB        -5.5360    1.9540    2.7760 C.3    19  ILE19       0.0000
     10  CG2       -4.6680    2.8120    3.6680 C.3    19  ILE19       0.0000
     11  CG1       -6.4730    1.0320    3.5590 C.3    19  ILE19       0.0000
     12  CD1       -5.8010   -0.0580    4.4540 C.3    19  ILE19       0.0000
     13  CB        -2.4050    5.2660    0.1860 C.3    20  ILE20       0.0000
     14  CG2       -2.4630    5.8250    1.5680 C.3    20  ILE20       0.0000
     15  CG1       -1.2750    4.2120    0.0230 C.3    20  ILE20       0.0000
     16  CD1        0.1400    4.6590    0.4820 C.3    20  ILE20       0.0000
     17  CB        -4.0340    5.0970   -4.9050 C.3    21  TRP21       0.0066
     18  CG        -4.1420    4.4570   -6.2530 C.3    21  TRP21       0.0452
     19  CD1       -4.4200    5.1350   -7.3950 C.3    21  TRP21       0.1165
     20  NE1       -4.3580    4.3210   -8.4860 N.pl3  21  TRP21      -0.2376
     21  CE2       -4.2540    2.9980   -8.1000 C.ar   21  TRP21       0.0614
     22  CZ2       -4.2590    1.7930   -8.8040 C.ar   21  TRP21       0.0158
     23  CH2       -4.1230    0.5570   -8.1300 C.ar   21  TRP21       0.0013
     24  CZ3       -3.9250    0.5410   -6.7890 C.ar   21  TRP21      -0.0002
     25  CE3       -3.9150    1.7780   -6.0690 C.ar   21  TRP21      -0.0030
     26  CD2       -4.1040    3.0450   -6.6980 C.ar   21  TRP21      -0.0059
@<TRIPOS>BOND
     1    22    23   ar
     2    22    21   ar
     3    23    24   ar
     4    21    20    1
     5    21    26   ar
     6    24    25   ar
     7    20    19    1
     8    25    26   ar
     9    26    18    1
    10    19    18    1
    11    18    17    1
    12     3     2    1
    13     2     4    1
    14     2     1    1
    15     5     6    1
    16     7     6   ar
    17    13    15    1
    18    13    14    1
    19    15    16    1
    20     6     8   ar
    21     9    11    1
    22     9    10    1
    23    11    12    1
@<TRIPOS>MOLECULE
2-[[2-[2-butyl-4-[(Z)-2-carboxy-3-(6-methoxy-1,3-benzodioxol-5-yl)prop-1-enyl]pyrazol-3-yl]-5-methoxyphenoxy]methyl]benzoic acid
 45 49 0 0 0
SMALL
GASTEIGER

@<TRIPOS>ATOM
      1 O          -6.0206    7.2886   -3.6996 O.3     1  LIG11      -0.4866
      2 O          -2.3897   -0.3401   -6.6543 O.3     1  LIG11      -0.4526
      3 O          -3.6241   -0.7805   -8.6804 O.3     1  LIG11      -0.4525
      4 O          -5.9713    3.4657   -8.3238 O.3     1  LIG11      -0.4947
      5 O          -3.8877   11.1441   -2.0100 O.3     1  LIG11      -0.4950
      6 O          -2.6020    5.8208   -7.3122 O.co2   1  LIG11      -0.5449
      7 O          -1.1284    4.9541   -5.8002 O.co2   1  LIG11      -0.5449
      8 O          -9.2213    6.6566   -3.4702 O.co2   1  LIG11      -0.5446
      9 O         -11.1083    7.8400   -3.1361 O.co2   1  LIG11      -0.5446
     10 N          -4.5015    4.6201   -0.8091 N.ar    1  LIG11      -0.2630
     11 N          -4.6652    3.3454   -1.2481 N.ar    1  LIG11      -0.1785
     12 C          -4.5518    5.5670   -1.8301 C.ar    1  LIG11       0.0795
     13 C          -4.0139    4.7524    0.5544 C.3     1  LIG11       0.0422
     14 C          -2.5711    5.2775    0.7062 C.3     1  LIG11      -0.0336
     15 C          -4.1281    4.7843   -2.9162 C.ar    1  LIG11       0.0207
     16 C          -4.6981    7.0499   -1.7270 C.ar    1  LIG11       0.0425
     17 C          -1.4843    4.4591    0.0064 C.3     1  LIG11      -0.0542
     18 C          -4.3671    3.4477   -2.5429 C.ar    1  LIG11       0.0571
     19 C          -3.3488    5.1908   -4.0447 C.2     1  LIG11      -0.0459
     20 C          -4.5988    4.0915   -5.9817 C.3     1  LIG11       0.0029
     21 C          -5.1084    7.8248   -2.8290 C.ar    1  LIG11       0.1336
     22 C          -3.4461    4.8030   -5.3333 C.2     1  LIG11      -0.0200
     23 C          -4.3064    2.8137   -6.7638 C.ar    1  LIG11       0.0023
     24 C          -4.3593    7.7738   -0.5776 C.ar    1  LIG11      -0.0456
     25 C          -0.1440    5.1858    0.0768 C.3     1  LIG11      -0.0652
     26 C          -4.6540    9.1388   -2.9342 C.ar    1  LIG11       0.0224
     27 C          -5.0553    2.5189   -7.9425 C.ar    1  LIG11       0.1273
     28 C          -3.3811    1.8660   -6.2827 C.ar    1  LIG11      -0.0092
     29 C          -4.1196    9.1514   -0.6103 C.ar    1  LIG11      -0.0191
     30 C          -3.2191    0.6889   -6.9880 C.ar    1  LIG11       0.1667
     31 C          -4.1940    9.8257   -1.8178 C.ar    1  LIG11       0.1236
     32 C          -3.9253    0.4326   -8.1382 C.ar    1  LIG11       0.1697
     33 C          -4.8425    1.3253   -8.6460 C.ar    1  LIG11       0.0258
     34 C          -2.2845    5.2342   -6.2384 C.2     1  LIG11       0.0680
     35 C          -6.9121    8.1459   -4.4615 C.3     1  LIG11       0.1153
     36 C          -2.6520   -1.2577   -7.7318 C.3     1  LIG11       0.2332
     37 C          -7.7616    9.2360   -3.7713 C.ar    1  LIG11      -0.0016
     38 C          -9.0446    9.0340   -3.1995 C.ar    1  LIG11       0.0037
     39 C          -7.2674   10.5646   -3.7855 C.ar    1  LIG11      -0.0547
     40 C          -6.9208    3.1129   -9.3147 C.3     1  LIG11       0.0788
     41 C          -9.6902   10.1342   -2.5718 C.ar    1  LIG11      -0.0525
     42 C          -7.9151   11.6268   -3.1522 C.ar    1  LIG11      -0.0614
     43 C          -4.0105   11.9670   -0.8584 C.3     1  LIG11       0.0788
     44 C          -9.1271   11.4074   -2.5258 C.ar    1  LIG11      -0.0611
     45 C          -9.8401    7.7365   -3.2741 C.2     1  LIG11       0.0720
@<TRIPOS>BOND
     1     1    35    1
     2     1    21    1
     3     2    36    1
     4     2    30    1
     5     3    32    1
     6     3    36    1
     7     4    27    1
     8     4    40    1
     9     5    31    1
    10     5    43    1
    11     6    34   ar
    12     7    34   ar
    13     8    45   ar
    14     9    45   ar
    15    10    11   ar
    16    10    12   ar
    17    10    13    1
    18    11    18   ar
    19    12    15   ar
    20    13    14    1
    21    14    17    1
    22    15    18   ar
    23    15    19    1
    24    16    24   ar
    25    16    21   ar
    26    16    12    1
    27    17    25    1
    28    19    22    2
    29    20    22    1
    30    20    23    1
    31    21    26   ar
    32    22    34    1
    33    23    28   ar
    34    23    27   ar
    35    24    29   ar
    36    26    31   ar
    37    27    33   ar
    38    28    30   ar
    39    29    31   ar
    40    30    32   ar
    41    32    33   ar
    42    35    37    1
    43    37    39   ar
    44    37    38   ar
    45    38    41   ar
    46    38    45    1
    47    39    42   ar
    48    41    44   ar
    49    42    44   ar
@<TRIPOS>MOLECULE
../ET1/ET1_17-21_50CONFORMERS.pdb
 47 48 0 0 0
SMALL
GASTEIGER

@<TRIPOS>ATOM
      1  N         -4.2630    0.3380   -2.7220 N.3    17  LEU17      -0.1231
      2  CA        -5.4500   -0.3910   -3.2230 C.3    17  LEU17       0.1693
      3  CB        -5.4380   -1.8950   -2.7790 C.3    17  LEU17       0.0284
      4  CG        -6.7550   -2.6670   -2.9110 C.3    17  LEU17       0.0019
      5  CD1       -7.2850   -2.7210   -4.3400 C.3    17  LEU17       0.0001
      6  CD2       -6.8480   -4.0480   -2.2330 C.3    17  LEU17       0.0001
      7  C         -6.7300    0.4070   -2.8460 C.2    17  LEU17       0.2592
      8  O         -7.5370    0.6600   -3.7240 O.2    17  LEU17      -0.2718
      9  N         -6.9440    0.8630   -1.5980 N.am   18  ASP18      -0.1960
     10  CA        -8.1490    1.7210   -1.2230 C.3    18  ASP18       0.1840
     11  CB        -9.1740    0.7080   -0.6200 C.3    18  ASP18       0.1450
     12  CG       -10.4840    1.3320   -0.0080 C.2    18  ASP18       0.3671
     13  OD1      -10.9350    2.3810   -0.5440 O.co2  18  ASP18      -0.2456
     14  OD2      -10.9480    0.9000    1.0780 O.co2  18  ASP18      -0.2456
     15  C         -7.6430    2.6500   -0.1610 C.2    18  ASP18       0.2622
     16  O         -7.9550    3.8460   -0.1940 O.2    18  ASP18      -0.2715
     17  N         -6.9670    2.1560    0.8670 N.am   19  ILE19      -0.1963
     18  CA        -6.3940    2.9560    1.9650 C.3    19  ILE19       0.1727
     19  CB        -5.5360    1.9540    2.7760 C.3    19  ILE19       0.0290
     20  CG2       -4.6680    2.8120    3.6680 C.3    19  ILE19       0.0023
     21  CG1       -6.4730    1.0320    3.5590 C.3    19  ILE19       0.0022
     22  CD1       -5.8010   -0.0580    4.4540 C.3    19  ILE19       0.0001
     23  C         -5.6790    4.1480    1.3650 C.2    19  ILE19       0.2616
     24  O         -5.9890    5.2780    1.6670 O.2    19  ILE19      -0.2715
     25  N         -4.6480    3.9310    0.5270 N.am   20  ILE20      -0.1963
     26  CA        -3.8710    4.9160   -0.2870 C.3    20  ILE20       0.1727
     27  CB        -2.4050    5.2660    0.1860 C.3    20  ILE20       0.0290
     28  CG2       -2.4630    5.8250    1.5680 C.3    20  ILE20       0.0023
     29  CG1       -1.2750    4.2120    0.0230 C.3    20  ILE20       0.0022
     30  CD1        0.1400    4.6590    0.4820 C.3    20  ILE20       0.0001
     31  C         -3.8480    4.4920   -1.7150 C.2    20  ILE20       0.2617
     32  O         -4.4360    3.4530   -1.9970 O.2    20  ILE20      -0.2715
     33  N         -3.1870    5.2370   -2.6190 N.am   21  TRP21      -0.1941
     34  CA        -2.8600    4.7140   -3.9450 C.3    21  TRP21       0.1982
     35  CB        -4.0340    5.0970   -4.9050 C.3    21  TRP21       0.0394
     36  CG        -4.1420    4.4570   -6.2530 C.3    21  TRP21       0.0475
     37  CD1       -4.4200    5.1350   -7.3950 C.3    21  TRP21       0.1166
     38  NE1       -4.3580    4.3210   -8.4860 N.pl3  21  TRP21      -0.2376
     39  CE2       -4.2540    2.9980   -8.1000 C.ar   21  TRP21       0.0614
     40  CZ2       -4.2590    1.7930   -8.8040 C.ar   21  TRP21       0.0158
     41  CH2       -4.1230    0.5570   -8.1300 C.ar   21  TRP21       0.0013
     42  CZ3       -3.9250    0.5410   -6.7890 C.ar   21  TRP21      -0.0002
     43  CE3       -3.9150    1.7780   -6.0690 C.ar   21  TRP21      -0.0030
     44  CD2       -4.1040    3.0450   -6.6980 C.ar   21  TRP21      -0.0059
     45  C         -1.6020    5.3220   -4.5240 C.2    21  TRP21       0.3842
     46  O         -1.4010    6.4990   -4.2420 O.co2  21  TRP21      -0.2437
     47  OXT       -0.8340    4.7050   -5.2670 O.co2  21  TRP21      -0.2437
@<TRIPOS>BOND
     1    40    41   ar
     2    40    39   ar
     3    41    42   ar
     4    39    38    1
     5    39    44   ar
     6    42    43   ar
     7    38    37    1
     8    43    44   ar
     9    44    36    1
    10    37    36    1
    11    36    35    1
    12    47    45   ar
    13     5     4    1
    14    35    34    1
    15    45    34    1
    16    45    46   ar
    17    34    33    1
    18     8     7    2
    19     4     6    1
    20     4     3    1
    21     2     3    1
    22     2     1    1
    23     2     7    1
    24     7     9   am
    25    33    31   am
    26    32    31    2
    27    31    26    1
    28     9    10    1
    29    10    11    1
    30    10    15    1
    31    26    27    1
    32    26    25    1
    33    11    12    1
    34    13    12   ar
    35    27    29    1
    36    27    28    1
    37    29    30    1
    38    16    15    2
    39    15    17   am
    40    12    14   ar
    41    25    23   am
    42    17    18    1
    43    23    24    2
    44    23    18    1
    45    18    19    1
    46    19    21    1
    47    19    20    1
    48    21    22    1
