@<TRIPOS>MOLECULE
../ET1/ET1_17-21_50CONFORMERS_NOBACKBONE.pdb
 26 23 0 0 0
SMALL
GASTEIGER

@<TRIPOS>ATOM
      1  CB        -5.4530   -1.5720   -1.0690 C.3    17  LEU17       0.0000
      2  CG        -6.6970   -2.4780   -1.0330 C.3    17  LEU17       0.0000
      3  CD1       -6.9020   -3.5380   -2.1700 C.3    17  LEU17       0.0000
      4  CD2       -6.6500   -3.2760    0.2870 C.3    17  LEU17       0.0000
      5  CB        -8.9870    1.1020   -0.0360 C.3    18  ASP18       0.1258
      6  CG       -10.3760    1.8060    0.1000 C.2    18  ASP18       0.3654
      7  OD1      -11.2340    1.4710   -0.7260 O.co2  18  ASP18      -0.2456
      8  OD2      -10.5620    2.7020    1.0180 O.co2  18  ASP18      -0.2456
      9  CB        -5.7530    3.4900    3.1650 C.3    19  ILE19       0.0000
     10  CG2       -4.9520    4.5830    3.9180 C.3    19  ILE19       0.0000
     11  CG1       -6.8640    2.8460    4.0270 C.3    19  ILE19       0.0000
     12  CD1       -6.2950    2.0740    5.2450 C.3    19  ILE19       0.0000
     13  CB        -2.6100    5.6290   -0.6190 C.3    20  ILE20       0.0000
     14  CG2       -2.4720    6.6900    0.4690 C.3    20  ILE20       0.0000
     15  CG1       -1.6500    4.4070   -0.2650 C.3    20  ILE20       0.0000
     16  CD1       -0.1570    4.7470    0.0440 C.3    20  ILE20       0.0000
     17  CB        -6.1500    3.9150   -4.7040 C.3    21  TRP21       0.0066
     18  CG        -6.5780    2.9800   -5.8100 C.3    21  TRP21       0.0452
     19  CD1       -7.4550    3.2610   -6.7780 C.3    21  TRP21       0.1165
     20  NE1       -7.6110    2.2010   -7.6480 N.pl3  21  TRP21      -0.2376
     21  CE2       -6.8730    1.0990   -7.2020 C.ar   21  TRP21       0.0614
     22  CZ2       -6.8030   -0.2390   -7.6200 C.ar   21  TRP21       0.0158
     23  CH2       -5.9830   -1.1580   -6.9260 C.ar   21  TRP21       0.0013
     24  CZ3       -5.3220   -0.6620   -5.8020 C.ar   21  TRP21      -0.0002
     25  CE3       -5.2770    0.6770   -5.5110 C.ar   21  TRP21      -0.0030
     26  CD2       -6.0860    1.6060   -6.1130 C.ar   21  TRP21      -0.0059
@<TRIPOS>BOND
     1    22    23   ar
     2    22    21   ar
     3    23    24   ar
     4    21    20    1
     5    21    26   ar
     6    24    25   ar
     7    20    19    1
     8    25    26   ar
     9    26    18    1
    10    19    18    1
    11    18    17    1
    12     3     2    1
    13     2     4    1
    14     2     1    1
    15     5     6    1
    16     7     6   ar
    17    13    15    1
    18    13    14    1
    19    15    16    1
    20     6     8   ar
    21     9    11    1
    22     9    10    1
    23    11    12    1
@<TRIPOS>MOLECULE
9911482
 30 32 0 0 0
SMALL
GASTEIGER

@<TRIPOS>ATOM
      1 S          -2.6870    1.1865   -1.0427 S.O2    1  LIG11       0.0758
      2 S          -0.3429    0.5891   -4.5618 S.2     1  LIG11      -0.0902
      3 O          -5.5454    3.1413   -0.2571 O.2     1  LIG11      -0.3377
      4 O          -3.7414    0.2607   -1.3695 O.2     1  LIG11      -0.1499
      5 O          -1.8927    1.0784    0.1627 O.2     1  LIG11      -0.1499
      6 O          -3.2086   -1.3316   -3.7917 O.2     1  LIG11      -0.2692
      7 O          -4.5869    2.9173   -4.6703 O.2     1  LIG11      -0.2923
      8 N          -3.5856    0.6108   -5.0015 N.am    1  LIG11      -0.2802
      9 N          -3.3211    2.7588   -1.1926 N.pl3   1  LIG11      -0.1831
     10 N          -6.1335    3.4553    0.9517 N.ar    1  LIG11      -0.0810
     11 C          -4.7254    0.2674   -5.7708 C.ar    1  LIG11       0.0471
     12 C          -1.5150    1.0317   -2.3174 C.ar    1  LIG11       0.1277
     13 C          -4.8688   -0.9820   -6.4130 C.ar    1  LIG11      -0.0283
     14 C          -5.7244    1.2613   -5.9608 C.ar    1  LIG11       0.0388
     15 C          -1.7339    0.4740   -3.5607 C.ar    1  LIG11       0.1007
     16 C          -7.0419   -0.2912   -7.3067 C.ar    1  LIG11      -0.0494
     17 C          -6.0447   -1.2522   -7.1409 C.ar    1  LIG11      -0.0541
     18 C          -6.8683    0.9677   -6.7259 C.ar    1  LIG11      -0.0466
     19 C          -2.8987   -0.1904   -4.1100 C.2     1  LIG11       0.2568
     20 C          -4.1959    3.0669   -0.1074 C.ar    1  LIG11       0.2399
     21 C          -0.1810    1.5421   -2.1890 C.ar    1  LIG11      -0.0273
     22 C          -3.8607    3.4081    1.1862 C.ar    1  LIG11       0.0350
     23 C          -3.8207   -2.0644   -6.4258 C.3     1  LIG11      -0.0379
     24 C          -5.5983    2.6186   -5.3123 C.2     1  LIG11       0.1619
     25 C          -5.1234    3.6051    1.8154 C.ar    1  LIG11       0.0854
     26 C           0.5613    1.3557   -3.3330 C.ar    1  LIG11      -0.0217
     27 C          -8.2827   -0.5991   -8.0935 C.3     1  LIG11      -0.0397
     28 C          -2.5247    3.5609    1.8068 C.3     1  LIG11      -0.0330
     29 C          -5.3985    3.9579    3.2289 C.3     1  LIG11      -0.0188
     30 C          -6.7274    3.6097   -5.4544 C.3     1  LIG11      -0.0013
@<TRIPOS>BOND
     1     1     4    2
     2     1     5    2
     3     1     9    1
     4     1    12    1
     5     2    15   ar
     6     2    26   ar
     7     3    10   ar
     8     3    20   ar
     9     6    19    2
    10     7    24    2
    11     8    11    1
    12     8    19   am
    13     9    20    1
    14    10    25   ar
    15    11    13   ar
    16    11    14   ar
    17    12    15   ar
    18    12    21   ar
    19    13    17   ar
    20    13    23    1
    21    14    18   ar
    22    14    24    1
    23    15    19    1
    24    16    17   ar
    25    16    18   ar
    26    16    27    1
    27    20    22   ar
    28    21    26   ar
    29    22    25   ar
    30    22    28    1
    31    24    30    1
    32    25    29    1
@<TRIPOS>MOLECULE
../ET1/ET1_17-21_50CONFORMERS.pdb
 47 48 0 0 0
SMALL
GASTEIGER

@<TRIPOS>ATOM
      1  N         -4.1840    0.1700   -2.1080 N.3    17  LEU17      -0.1231
      2  CA        -5.4310   -0.5590   -2.2130 C.3    17  LEU17       0.1693
      3  CB        -5.4530   -1.5720   -1.0690 C.3    17  LEU17       0.0284
      4  CG        -6.6970   -2.4780   -1.0330 C.3    17  LEU17       0.0019
      5  CD1       -6.9020   -3.5380   -2.1700 C.3    17  LEU17       0.0001
      6  CD2       -6.6500   -3.2760    0.2870 C.3    17  LEU17       0.0001
      7  C         -6.6870    0.4050   -2.2250 C.2    17  LEU17       0.2592
      8  O         -7.4180    0.4050   -3.2490 O.2    17  LEU17      -0.2718
      9  N         -6.8100    1.2430   -1.2130 N.am   18  ASP18      -0.1960
     10  CA        -8.0140    1.9860   -0.8630 C.3    18  ASP18       0.1840
     11  CB        -8.9870    1.1020   -0.0360 C.3    18  ASP18       0.1450
     12  CG       -10.3760    1.8060    0.1000 C.2    18  ASP18       0.3671
     13  OD1      -11.2340    1.4710   -0.7260 O.co2  18  ASP18      -0.2456
     14  OD2      -10.5620    2.7020    1.0180 O.co2  18  ASP18      -0.2456
     15  C         -7.6500    3.2210   -0.1030 C.2    18  ASP18       0.2622
     16  O         -8.0810    4.3050   -0.4240 O.2    18  ASP18      -0.2715
     17  N         -6.9110    3.0370    1.0180 N.am   19  ILE19      -0.1963
     18  CA        -6.3970    4.0740    1.8940 C.3    19  ILE19       0.1727
     19  CB        -5.7530    3.4900    3.1650 C.3    19  ILE19       0.0290
     20  CG2       -4.9520    4.5830    3.9180 C.3    19  ILE19       0.0023
     21  CG1       -6.8640    2.8460    4.0270 C.3    19  ILE19       0.0022
     22  CD1       -6.2950    2.0740    5.2450 C.3    19  ILE19       0.0001
     23  C         -5.5560    5.0440    1.0520 C.2    19  ILE19       0.2616
     24  O         -5.7530    6.2870    1.0950 O.2    19  ILE19      -0.2715
     25  N         -4.6380    4.5410    0.2690 N.am   20  ILE20      -0.1963
     26  CA        -4.0580    5.1800   -0.8700 C.3    20  ILE20       0.1727
     27  CB        -2.6100    5.6290   -0.6190 C.3    20  ILE20       0.0290
     28  CG2       -2.4720    6.6900    0.4690 C.3    20  ILE20       0.0023
     29  CG1       -1.6500    4.4070   -0.2650 C.3    20  ILE20       0.0022
     30  CD1       -0.1570    4.7470    0.0440 C.3    20  ILE20       0.0001
     31  C         -4.1510    4.2950   -2.1670 C.2    20  ILE20       0.2617
     32  O         -4.1350    3.0460   -2.0390 O.2    20  ILE20      -0.2715
     33  N         -4.2910    4.9490   -3.3220 N.am   21  TRP21      -0.1941
     34  CA        -4.6580    4.2080   -4.6000 C.3    21  TRP21       0.1982
     35  CB        -6.1500    3.9150   -4.7040 C.3    21  TRP21       0.0394
     36  CG        -6.5780    2.9800   -5.8100 C.3    21  TRP21       0.0475
     37  CD1       -7.4550    3.2610   -6.7780 C.3    21  TRP21       0.1166
     38  NE1       -7.6110    2.2010   -7.6480 N.pl3  21  TRP21      -0.2376
     39  CE2       -6.8730    1.0990   -7.2020 C.ar   21  TRP21       0.0614
     40  CZ2       -6.8030   -0.2390   -7.6200 C.ar   21  TRP21       0.0158
     41  CH2       -5.9830   -1.1580   -6.9260 C.ar   21  TRP21       0.0013
     42  CZ3       -5.3220   -0.6620   -5.8020 C.ar   21  TRP21      -0.0002
     43  CE3       -5.2770    0.6770   -5.5110 C.ar   21  TRP21      -0.0030
     44  CD2       -6.0860    1.6060   -6.1130 C.ar   21  TRP21      -0.0059
     45  C         -4.1390    5.0410   -5.7810 C.2    21  TRP21       0.3842
     46  O         -3.4380    4.4880   -6.6810 O.co2  21  TRP21      -0.2437
     47  OXT       -4.3440    6.2890   -5.8160 O.co2  21  TRP21      -0.2437
@<TRIPOS>BOND
     1    40    41   ar
     2    40    39   ar
     3    41    42   ar
     4    39    38    1
     5    39    44   ar
     6    42    43   ar
     7    38    37    1
     8    43    44   ar
     9    44    36    1
    10    37    36    1
    11    36    35    1
    12    47    45   ar
    13     5     4    1
    14    35    34    1
    15    45    34    1
    16    45    46   ar
    17    34    33    1
    18     8     7    2
    19     4     6    1
    20     4     3    1
    21     2     3    1
    22     2     1    1
    23     2     7    1
    24     7     9   am
    25    33    31   am
    26    32    31    2
    27    31    26    1
    28     9    10    1
    29    10    11    1
    30    10    15    1
    31    26    27    1
    32    26    25    1
    33    11    12    1
    34    13    12   ar
    35    27    29    1
    36    27    28    1
    37    29    30    1
    38    16    15    2
    39    15    17   am
    40    12    14   ar
    41    25    23   am
    42    17    18    1
    43    23    24    2
    44    23    18    1
    45    18    19    1
    46    19    21    1
    47    19    20    1
    48    21    22    1
