@<TRIPOS>MOLECULE
../ET1/ET1_17-21_50CONFORMERS_NOBACKBONE.pdb
 26 23 0 0 0
SMALL
GASTEIGER

@<TRIPOS>ATOM
      1  CB        -5.6090   -2.1190   -0.0730 C.3    17  LEU17       0.0000
      2  CG        -6.8010   -2.9380    0.5390 C.3    17  LEU17       0.0000
      3  CD1       -7.5860   -3.5580   -0.5610 C.3    17  LEU17       0.0000
      4  CD2       -6.1610   -3.9960    1.4440 C.3    17  LEU17       0.0000
      5  CB        -8.9800    0.7900    1.8180 C.3    18  ASP18       0.1258
      6  CG       -10.1050    1.6830    2.3700 C.2    18  ASP18       0.3654
      7  OD1       -9.7710    2.5990    3.1630 O.co2  18  ASP18      -0.2456
      8  OD2      -11.2830    1.5600    2.0180 O.co2  18  ASP18      -0.2456
      9  CB        -5.1350    4.2480    2.7190 C.3    19  ILE19       0.0000
     10  CG2       -4.6780    5.6390    3.1660 C.3    19  ILE19       0.0000
     11  CG1       -5.4830    3.5270    4.0300 C.3    19  ILE19       0.0000
     12  CD1       -6.6190    4.1350    4.9440 C.3    19  ILE19       0.0000
     13  CB        -3.2680    5.9110   -1.6200 C.3    20  ILE20       0.0000
     14  CG2       -3.0520    6.6380   -0.2870 C.3    20  ILE20       0.0000
     15  CG1       -2.2270    4.7520   -1.7430 C.3    20  ILE20       0.0000
     16  CD1       -0.7750    5.0960   -1.7800 C.3    20  ILE20       0.0000
     17  CB        -7.2070    4.5150   -5.5870 C.3    21  TRP21       0.0066
     18  CG        -8.0110    3.6630   -4.7300 C.3    21  TRP21       0.0452
     19  CD1       -7.5610    2.5780   -4.0350 C.3    21  TRP21       0.1165
     20  NE1       -8.5580    2.0360   -3.2140 N.pl3  21  TRP21      -0.2376
     21  CE2       -9.6780    2.7840   -3.3310 C.ar   21  TRP21       0.0614
     22  CZ2      -10.9600    2.6510   -2.7480 C.ar   21  TRP21       0.0158
     23  CH2      -12.0440    3.5240   -3.0490 C.ar   21  TRP21       0.0013
     24  CZ3      -11.8460    4.4990   -4.0270 C.ar   21  TRP21      -0.0002
     25  CE3      -10.5290    4.6990   -4.4910 C.ar   21  TRP21      -0.0030
     26  CD2       -9.4110    3.8340   -4.2710 C.ar   21  TRP21      -0.0059
@<TRIPOS>BOND
     1    22    23   ar
     2    22    21   ar
     3    23    24   ar
     4    21    20    1
     5    21    26   ar
     6    24    25   ar
     7    20    19    1
     8    25    26   ar
     9    26    18    1
    10    19    18    1
    11    18    17    1
    12     3     2    1
    13     2     4    1
    14     2     1    1
    15     5     6    1
    16     7     6   ar
    17    13    15    1
    18    13    14    1
    19    15    16    1
    20     6     8   ar
    21     9    11    1
    22     9    10    1
    23    11    12    1
@<TRIPOS>MOLECULE
2-[[2-[2-butyl-4-[(Z)-2-carboxy-3-(6-methoxy-1,3-benzodioxol-5-yl)prop-1-enyl]pyrazol-3-yl]-5-methoxyphenoxy]methyl]benzoic acid
 45 49 0 0 0
SMALL
GASTEIGER

@<TRIPOS>ATOM
      1 O          -4.7778    5.9186    0.8339 O.3     1  LIG11      -0.4866
      2 O         -13.4069    4.8633   -4.6581 O.3     1  LIG11      -0.4526
      3 O         -13.7722    2.9522   -3.2324 O.3     1  LIG11      -0.4525
      4 O          -9.0179    2.2980   -2.6018 O.3     1  LIG11      -0.4947
      5 O          -9.4521    6.7003    1.7724 O.3     1  LIG11      -0.4950
      6 O          -8.6522    3.6324   -6.6735 O.co2   1  LIG11      -0.5449
      7 O          -6.5911    2.6824   -6.6087 O.co2   1  LIG11      -0.5449
      8 O          -3.4029    8.2735   -0.3789 O.co2   1  LIG11      -0.5446
      9 O          -5.2797    9.3433    0.3530 O.co2   1  LIG11      -0.5446
     10 N          -4.2040    3.8552   -1.1467 N.ar    1  LIG11      -0.2630
     11 N          -3.8663    2.5679   -1.4039 N.ar    1  LIG11      -0.1785
     12 C          -5.5281    4.1333   -1.5057 C.ar    1  LIG11       0.0795
     13 C          -3.1237    4.8049   -0.9210 C.3     1  LIG11       0.0422
     14 C          -1.9696    4.7188   -1.9238 C.3     1  LIG11      -0.0336
     15 C          -5.6256    3.3545   -2.6822 C.ar    1  LIG11       0.0207
     16 C          -6.4374    4.9697   -0.6469 C.ar    1  LIG11       0.0425
     17 C          -0.8536    5.6797   -1.5071 C.3     1  LIG11      -0.0542
     18 C          -4.6428    2.3294   -2.4560 C.ar    1  LIG11       0.0571
     19 C          -6.3480    3.2725   -3.9306 C.2     1  LIG11      -0.0459
     20 C          -8.4777    4.7283   -4.1709 C.3     1  LIG11       0.0029
     21 C          -6.0920    5.7404    0.4988 C.ar    1  LIG11       0.1336
     22 C          -7.4190    3.7599   -4.5942 C.2     1  LIG11      -0.0200
     23 C          -9.8650    4.1383   -3.8855 C.ar    1  LIG11       0.0023
     24 C          -7.8096    4.8328   -0.8669 C.ar    1  LIG11      -0.0456
     25 C           0.1619    5.8792   -2.6170 C.3     1  LIG11      -0.0652
     26 C          -7.0859    6.3757    1.2793 C.ar    1  LIG11       0.0224
     27 C         -10.1032    2.9980   -3.0637 C.ar    1  LIG11       0.1273
     28 C         -10.9745    4.8114   -4.4450 C.ar    1  LIG11      -0.0092
     29 C          -8.7996    5.4379   -0.0860 C.ar    1  LIG11      -0.0191
     30 C         -12.2428    4.3437   -4.1779 C.ar    1  LIG11       0.1667
     31 C          -8.4362    6.1835    1.0166 C.ar    1  LIG11       0.1236
     32 C         -12.4529    3.2549   -3.3690 C.ar    1  LIG11       0.1697
     33 C         -11.4108    2.5609   -2.7995 C.ar    1  LIG11       0.0258
     34 C          -7.5718    3.3046   -6.1019 C.2     1  LIG11       0.0680
     35 C          -4.4020    6.0259    2.2024 C.3     1  LIG11       0.1153
     36 C         -14.3571    3.9266   -4.1169 C.3     1  LIG11       0.2332
     37 C          -3.8114    7.3463    2.6782 C.ar    1  LIG11      -0.0016
     38 C          -3.7441    8.5410    1.9344 C.ar    1  LIG11       0.0037
     39 C          -3.2951    7.3634    3.9948 C.ar    1  LIG11      -0.0547
     40 C          -9.1529    1.6580   -1.3406 C.3     1  LIG11       0.0788
     41 C          -3.1909    9.7005    2.5226 C.ar    1  LIG11      -0.0525
     42 C          -2.7377    8.5168    4.5564 C.ar    1  LIG11      -0.0614
     43 C          -9.2425    6.5224    3.1702 C.3     1  LIG11       0.0788
     44 C          -2.6900    9.6912    3.8193 C.ar    1  LIG11      -0.0611
     45 C          -4.2061    8.6938    0.5125 C.2     1  LIG11       0.0720
@<TRIPOS>BOND
     1     1    35    1
     2     1    21    1
     3     2    36    1
     4     2    30    1
     5     3    32    1
     6     3    36    1
     7     4    27    1
     8     4    40    1
     9     5    31    1
    10     5    43    1
    11     6    34   ar
    12     7    34   ar
    13     8    45   ar
    14     9    45   ar
    15    10    11   ar
    16    10    12   ar
    17    10    13    1
    18    11    18   ar
    19    12    15   ar
    20    13    14    1
    21    14    17    1
    22    15    18   ar
    23    15    19    1
    24    16    24   ar
    25    16    21   ar
    26    16    12    1
    27    17    25    1
    28    19    22    2
    29    20    22    1
    30    20    23    1
    31    21    26   ar
    32    22    34    1
    33    23    28   ar
    34    23    27   ar
    35    24    29   ar
    36    26    31   ar
    37    27    33   ar
    38    28    30   ar
    39    29    31   ar
    40    30    32   ar
    41    32    33   ar
    42    35    37    1
    43    37    39   ar
    44    37    38   ar
    45    38    41   ar
    46    38    45    1
    47    39    42   ar
    48    41    44   ar
    49    42    44   ar
@<TRIPOS>MOLECULE
../ET1/ET1_17-21_50CONFORMERS.pdb
 47 48 0 0 0
SMALL
GASTEIGER

@<TRIPOS>ATOM
      1  N         -4.6060   -0.2010   -1.2330 N.3    17  LEU17      -0.1231
      2  CA        -5.8420   -1.0210   -1.1000 C.3    17  LEU17       0.1693
      3  CB        -5.6090   -2.1190   -0.0730 C.3    17  LEU17       0.0284
      4  CG        -6.8010   -2.9380    0.5390 C.3    17  LEU17       0.0019
      5  CD1       -7.5860   -3.5580   -0.5610 C.3    17  LEU17       0.0001
      6  CD2       -6.1610   -3.9960    1.4440 C.3    17  LEU17       0.0001
      7  C         -7.1100   -0.2470   -0.8830 C.2    17  LEU17       0.2592
      8  O         -8.0200   -0.2640   -1.7200 O.2    17  LEU17      -0.2718
      9  N         -7.1610    0.5120    0.2110 N.am   18  ASP18      -0.1960
     10  CA        -8.2950    1.3600    0.5550 C.3    18  ASP18       0.1840
     11  CB        -8.9800    0.7900    1.8180 C.3    18  ASP18       0.1450
     12  CG       -10.1050    1.6830    2.3700 C.2    18  ASP18       0.3671
     13  OD1       -9.7710    2.5990    3.1630 O.co2  18  ASP18      -0.2456
     14  OD2      -11.2830    1.5600    2.0180 O.co2  18  ASP18      -0.2456
     15  C         -7.9560    2.8500    0.6680 C.2    18  ASP18       0.2622
     16  O         -8.6760    3.7220    0.1000 O.2    18  ASP18      -0.2715
     17  N         -6.8320    3.0920    1.3440 N.am   19  ILE19      -0.1963
     18  CA        -6.3230    4.4110    1.7170 C.3    19  ILE19       0.1727
     19  CB        -5.1350    4.2480    2.7190 C.3    19  ILE19       0.0290
     20  CG2       -4.6780    5.6390    3.1660 C.3    19  ILE19       0.0023
     21  CG1       -5.4830    3.5270    4.0300 C.3    19  ILE19       0.0022
     22  CD1       -6.6190    4.1350    4.9440 C.3    19  ILE19       0.0001
     23  C         -6.0150    5.2070    0.4720 C.2    19  ILE19       0.2616
     24  O         -6.5230    6.3560    0.4050 O.2    19  ILE19      -0.2715
     25  N         -5.1800    4.6650   -0.4490 N.am   20  ILE20      -0.1963
     26  CA        -4.7570    5.3990   -1.6510 C.3    20  ILE20       0.1727
     27  CB        -3.2680    5.9110   -1.6200 C.3    20  ILE20       0.0290
     28  CG2       -3.0520    6.6380   -0.2870 C.3    20  ILE20       0.0023
     29  CG1       -2.2270    4.7520   -1.7430 C.3    20  ILE20       0.0022
     30  CD1       -0.7750    5.0960   -1.7800 C.3    20  ILE20       0.0001
     31  C         -5.0150    4.5430   -2.9200 C.2    20  ILE20       0.2617
     32  O         -4.8870    3.3040   -2.9130 O.2    20  ILE20      -0.2715
     33  N         -5.3830    5.2060   -4.0460 N.am   21  TRP21      -0.1941
     34  CA        -5.6860    4.6510   -5.4490 C.3    21  TRP21       0.1982
     35  CB        -7.2070    4.5150   -5.5870 C.3    21  TRP21       0.0394
     36  CG        -8.0110    3.6630   -4.7300 C.3    21  TRP21       0.0475
     37  CD1       -7.5610    2.5780   -4.0350 C.3    21  TRP21       0.1166
     38  NE1       -8.5580    2.0360   -3.2140 N.pl3  21  TRP21      -0.2376
     39  CE2       -9.6780    2.7840   -3.3310 C.ar   21  TRP21       0.0614
     40  CZ2      -10.9600    2.6510   -2.7480 C.ar   21  TRP21       0.0158
     41  CH2      -12.0440    3.5240   -3.0490 C.ar   21  TRP21       0.0013
     42  CZ3      -11.8460    4.4990   -4.0270 C.ar   21  TRP21      -0.0002
     43  CE3      -10.5290    4.6990   -4.4910 C.ar   21  TRP21      -0.0030
     44  CD2       -9.4110    3.8340   -4.2710 C.ar   21  TRP21      -0.0059
     45  C         -5.2340    5.6010   -6.5370 C.2    21  TRP21       0.3842
     46  O         -5.2330    5.2660   -7.7060 O.co2  21  TRP21      -0.2437
     47  OXT       -5.0030    6.7940   -6.3210 O.co2  21  TRP21      -0.2437
@<TRIPOS>BOND
     1    40    41   ar
     2    40    39   ar
     3    41    42   ar
     4    39    38    1
     5    39    44   ar
     6    42    43   ar
     7    38    37    1
     8    43    44   ar
     9    44    36    1
    10    37    36    1
    11    36    35    1
    12    47    45   ar
    13     5     4    1
    14    35    34    1
    15    45    34    1
    16    45    46   ar
    17    34    33    1
    18     8     7    2
    19     4     6    1
    20     4     3    1
    21     2     3    1
    22     2     1    1
    23     2     7    1
    24     7     9   am
    25    33    31   am
    26    32    31    2
    27    31    26    1
    28     9    10    1
    29    10    11    1
    30    10    15    1
    31    26    27    1
    32    26    25    1
    33    11    12    1
    34    13    12   ar
    35    27    29    1
    36    27    28    1
    37    29    30    1
    38    16    15    2
    39    15    17   am
    40    12    14   ar
    41    25    23   am
    42    17    18    1
    43    23    24    2
    44    23    18    1
    45    18    19    1
    46    19    21    1
    47    19    20    1
    48    21    22    1
