@<TRIPOS>MOLECULE
../ET1/ET1_17-21_50CONFORMERS_NOBACKBONE.pdb
 26 23 0 0 0
SMALL
GASTEIGER

@<TRIPOS>ATOM
      1  CB        -5.7410   -1.6660   -0.9970 C.3    17  LEU17       0.0000
      2  CG        -7.0800   -2.4770   -1.0040 C.3    17  LEU17       0.0000
      3  CD1       -7.0720   -3.6360   -1.8940 C.3    17  LEU17       0.0000
      4  CD2       -7.2270   -3.0350    0.3960 C.3    17  LEU17       0.0000
      5  CB        -9.0140    2.0580   -0.6430 C.3    18  ASP18       0.1258
      6  CG        -9.9230    3.2540   -0.8450 C.2    18  ASP18       0.3654
      7  OD1      -10.4270    3.4060   -2.0000 O.co2  18  ASP18      -0.2456
      8  OD2      -10.1710    4.0160    0.1240 O.co2  18  ASP18      -0.2456
      9  CB        -5.1660    3.8070    3.1390 C.3    19  ILE19       0.0000
     10  CG2       -4.2870    4.9150    3.8120 C.3    19  ILE19       0.0000
     11  CG1       -6.4310    3.4720    3.9910 C.3    19  ILE19       0.0000
     12  CD1       -6.0780    2.8870    5.3860 C.3    19  ILE19       0.0000
     13  CB        -1.7990    4.4960   -1.1570 C.3    20  ILE20       0.0000
     14  CG2       -0.9550    4.5180   -2.4510 C.3    20  ILE20       0.0000
     15  CG1       -1.1240    5.3340   -0.0410 C.3    20  ILE20       0.0000
     16  CD1        0.3720    5.2830   -0.0060 C.3    20  ILE20       0.0000
     17  CB        -5.9730    3.7280   -4.7280 C.3    21  TRP21       0.0066
     18  CG        -6.5950    3.0710   -5.9210 C.3    21  TRP21       0.0452
     19  CD1       -7.4580    3.7380   -6.7610 C.3    21  TRP21       0.1165
     20  NE1       -7.8220    2.9010   -7.7810 N.pl3  21  TRP21      -0.2376
     21  CE2       -7.4510    1.6160   -7.4090 C.ar   21  TRP21       0.0614
     22  CZ2       -7.8370    0.3550   -7.8470 C.ar   21  TRP21       0.0158
     23  CH2       -7.2100   -0.7860   -7.3500 C.ar   21  TRP21       0.0013
     24  CZ3       -6.2620   -0.6970   -6.3170 C.ar   21  TRP21      -0.0002
     25  CE3       -5.9790    0.5650   -5.8550 C.ar   21  TRP21      -0.0030
     26  CD2       -6.5680    1.7210   -6.3420 C.ar   21  TRP21      -0.0059
@<TRIPOS>BOND
     1    22    23   ar
     2    22    21   ar
     3    23    24   ar
     4    21    20    1
     5    21    26   ar
     6    24    25   ar
     7    20    19    1
     8    25    26   ar
     9    26    18    1
    10    19    18    1
    11    18    17    1
    12     3     2    1
    13     2     4    1
    14     2     1    1
    15     5     6    1
    16     7     6   ar
    17    13    15    1
    18    13    14    1
    19    15    16    1
    20     6     8   ar
    21     9    11    1
    22     9    10    1
    23    11    12    1
@<TRIPOS>MOLECULE
01178588C
 32 34 0 0 0
SMALL
GASTEIGER

@<TRIPOS>ATOM
      1 S          -9.1663   -3.3728   -5.8593 S.O2    1  LIG11       0.0756
      2 C          -8.7889   -3.1424   -7.5733 C.ar    1  LIG11       0.1344
      3 N          -9.6422   -1.8516   -5.3015 N.pl3   1  LIG11      -0.1951
      4 O          -7.9560   -3.8309   -5.2172 O.2     1  LIG11      -0.1499
      5 O         -10.3571   -4.2011   -5.8199 O.2     1  LIG11      -0.1499
      6 C          -8.0545   -2.0839   -8.0972 C.ar    1  LIG11       0.0975
      7 C          -9.3236   -4.1045   -8.4562 C.ar    1  LIG11      -0.0315
      8 C         -10.0051   -1.8939   -3.9233 C.ar    1  LIG11       0.2006
      9 C          -7.4259   -0.9411   -7.3913 C.ar    1  LIG11       0.0023
     10 N          -7.8715   -1.9902   -9.4551 N.ar    1  LIG11      -0.2530
     11 C          -9.1258   -3.9965   -9.8252 C.ar    1  LIG11      -0.0417
     12 C          -9.1125   -1.9979   -2.8493 C.ar    1  LIG11       0.2574
     13 N         -11.3461   -1.9355   -3.7691 N.ar    1  LIG11      -0.2325
     14 C          -6.6636   -1.0539   -6.2223 C.ar    1  LIG11      -0.0523
     15 C          -7.5032    0.3452   -7.9663 C.ar    1  LIG11      -0.0523
     16 C          -8.3939   -2.9239  -10.2753 C.ar    1  LIG11       0.0284
     17 N          -9.5494   -2.1762   -1.5761 N.ar    1  LIG11      -0.2137
     18 O          -7.7612   -1.8899   -3.0927 O.3     1  LIG11      -0.4773
     19 C         -11.7644   -2.1156   -2.4944 C.ar    1  LIG11       0.0510
     20 C          -6.0650    0.0682   -5.6248 C.ar    1  LIG11      -0.0579
     21 C          -6.8691    1.4564   -7.4009 C.ar    1  LIG11      -0.0579
     22 C         -10.8938   -2.2392   -1.4136 C.ar    1  LIG11       0.0602
     23 C          -6.9628   -1.9527   -1.9189 C.3     1  LIG11       0.0805
     24 C          -6.1628    1.3378   -6.2056 C.ar    1  LIG11      -0.0465
     25 C         -11.4214   -2.4847   -0.0349 C.3     1  LIG11      -0.0208
     26 C          -5.4526    2.5283   -5.5853 C.3     1  LIG11      -0.0174
     27 C          -6.3281    3.6983   -5.0747 C.3     1  LIG11       0.0085
     28 C          -5.3863    4.6592   -4.2880 C.2     1  LIG11       0.0477
     29 C          -6.8663    4.5934   -6.1995 C.3     1  LIG11      -0.0544
     30 C          -7.4818    3.2131   -4.1900 C.3     1  LIG11      -0.0544
     31 O          -4.2406    4.8444   -4.7971 O.co2   1  LIG11      -0.5493
     32 O          -5.8690    5.1804   -3.2435 O.co2   1  LIG11      -0.5493
@<TRIPOS>BOND
     1     1     5    2
     2     1     4    2
     3     1     3    1
     4     1     2    1
     5     2     6   ar
     6     2     7   ar
     7     3     8    1
     8     6    10   ar
     9     6     9    1
    10     7    11   ar
    11     8    12   ar
    12     8    13   ar
    13     9    14   ar
    14     9    15   ar
    15    10    16   ar
    16    11    16   ar
    17    12    17   ar
    18    12    18    1
    19    13    19   ar
    20    14    20   ar
    21    15    21   ar
    22    17    22   ar
    23    18    23    1
    24    19    22   ar
    25    20    24   ar
    26    21    24   ar
    27    22    25    1
    28    24    26    1
    29    26    27    1
    30    27    30    1
    31    27    29    1
    32    27    28    1
    33    28    32   ar
    34    28    31   ar
@<TRIPOS>MOLECULE
../ET1/ET1_17-21_50CONFORMERS.pdb
 47 48 0 0 0
SMALL
GASTEIGER

@<TRIPOS>ATOM
      1  N         -4.2790   -0.1190   -2.0470 N.3    17  LEU17      -0.1231
      2  CA        -5.5940   -0.7250   -2.2120 C.3    17  LEU17       0.1693
      3  CB        -5.7410   -1.6660   -0.9970 C.3    17  LEU17       0.0284
      4  CG        -7.0800   -2.4770   -1.0040 C.3    17  LEU17       0.0019
      5  CD1       -7.0720   -3.6360   -1.8940 C.3    17  LEU17       0.0001
      6  CD2       -7.2270   -3.0350    0.3960 C.3    17  LEU17       0.0001
      7  C         -6.7480    0.3610   -2.1680 C.2    17  LEU17       0.2592
      8  O         -7.6420    0.4260   -3.0190 O.2    17  LEU17      -0.2718
      9  N         -6.6830    1.1920   -1.0710 N.am   18  ASP18      -0.1960
     10  CA        -7.5670    2.3620   -1.0900 C.3    18  ASP18       0.1840
     11  CB        -9.0140    2.0580   -0.6430 C.3    18  ASP18       0.1450
     12  CG        -9.9230    3.2540   -0.8450 C.2    18  ASP18       0.3671
     13  OD1      -10.4270    3.4060   -2.0000 O.co2  18  ASP18      -0.2456
     14  OD2      -10.1710    4.0160    0.1240 O.co2  18  ASP18      -0.2456
     15  C         -6.9940    3.5030   -0.2290 C.2    18  ASP18       0.2622
     16  O         -7.0620    4.6530   -0.6570 O.2    18  ASP18      -0.2715
     17  N         -6.3850    3.3110    0.8920 N.am   19  ILE19      -0.1963
     18  CA        -5.6590    4.3450    1.7380 C.3    19  ILE19       0.1727
     19  CB        -5.1660    3.8070    3.1390 C.3    19  ILE19       0.0290
     20  CG2       -4.2870    4.9150    3.8120 C.3    19  ILE19       0.0023
     21  CG1       -6.4310    3.4720    3.9910 C.3    19  ILE19       0.0022
     22  CD1       -6.0780    2.8870    5.3860 C.3    19  ILE19       0.0001
     23  C         -4.5450    4.9360    0.8000 C.2    19  ILE19       0.2616
     24  O         -4.3460    6.1370    0.7840 O.2    19  ILE19      -0.2715
     25  N         -3.9360    4.1940   -0.1550 N.am   20  ILE20      -0.1963
     26  CA        -3.2610    4.7730   -1.3150 C.3    20  ILE20       0.1727
     27  CB        -1.7990    4.4960   -1.1570 C.3    20  ILE20       0.0290
     28  CG2       -0.9550    4.5180   -2.4510 C.3    20  ILE20       0.0023
     29  CG1       -1.1240    5.3340   -0.0410 C.3    20  ILE20       0.0022
     30  CD1        0.3720    5.2830   -0.0060 C.3    20  ILE20       0.0001
     31  C         -3.8840    4.0520   -2.5330 C.2    20  ILE20       0.2617
     32  O         -4.2680    2.8800   -2.4260 O.2    20  ILE20      -0.2715
     33  N         -4.0660    4.7980   -3.6400 N.am   21  TRP21      -0.1941
     34  CA        -4.5180    4.2280   -4.9240 C.3    21  TRP21       0.1982
     35  CB        -5.9730    3.7280   -4.7280 C.3    21  TRP21       0.0394
     36  CG        -6.5950    3.0710   -5.9210 C.3    21  TRP21       0.0475
     37  CD1       -7.4580    3.7380   -6.7610 C.3    21  TRP21       0.1166
     38  NE1       -7.8220    2.9010   -7.7810 N.pl3  21  TRP21      -0.2376
     39  CE2       -7.4510    1.6160   -7.4090 C.ar   21  TRP21       0.0614
     40  CZ2       -7.8370    0.3550   -7.8470 C.ar   21  TRP21       0.0158
     41  CH2       -7.2100   -0.7860   -7.3500 C.ar   21  TRP21       0.0013
     42  CZ3       -6.2620   -0.6970   -6.3170 C.ar   21  TRP21      -0.0002
     43  CE3       -5.9790    0.5650   -5.8550 C.ar   21  TRP21      -0.0030
     44  CD2       -6.5680    1.7210   -6.3420 C.ar   21  TRP21      -0.0059
     45  C         -4.3900    5.2420   -6.0420 C.2    21  TRP21       0.3842
     46  O         -3.6970    4.8840   -7.0030 O.co2  21  TRP21      -0.2437
     47  OXT       -4.9340    6.3240   -5.8780 O.co2  21  TRP21      -0.2437
@<TRIPOS>BOND
     1    40    41   ar
     2    40    39   ar
     3    41    42   ar
     4    39    38    1
     5    39    44   ar
     6    42    43   ar
     7    38    37    1
     8    43    44   ar
     9    44    36    1
    10    37    36    1
    11    36    35    1
    12    47    45   ar
    13     5     4    1
    14    35    34    1
    15    45    34    1
    16    45    46   ar
    17    34    33    1
    18     8     7    2
    19     4     6    1
    20     4     3    1
    21     2     3    1
    22     2     1    1
    23     2     7    1
    24     7     9   am
    25    33    31   am
    26    32    31    2
    27    31    26    1
    28     9    10    1
    29    10    11    1
    30    10    15    1
    31    26    27    1
    32    26    25    1
    33    11    12    1
    34    13    12   ar
    35    27    29    1
    36    27    28    1
    37    29    30    1
    38    16    15    2
    39    15    17   am
    40    12    14   ar
    41    25    23   am
    42    17    18    1
    43    23    24    2
    44    23    18    1
    45    18    19    1
    46    19    21    1
    47    19    20    1
    48    21    22    1
