@<TRIPOS>MOLECULE
../ET1/ET1_17-21_50CONFORMERS_NOBACKBONE.pdb
 26 23 0 0 0
SMALL
GASTEIGER

@<TRIPOS>ATOM
      1  CB        -5.8570   -2.2150   -2.0310 C.3    17  LEU17       0.0000
      2  CG        -7.1220   -3.0210   -2.1490 C.3    17  LEU17       0.0000
      3  CD1       -7.7280   -3.0350   -3.5420 C.3    17  LEU17       0.0000
      4  CD2       -6.9000   -4.4680   -1.7520 C.3    17  LEU17       0.0000
      5  CB        -8.7560   -0.4860    1.0510 C.3    18  ASP18       0.1258
      6  CG       -10.1520   -0.2260    1.6910 C.2    18  ASP18       0.3654
      7  OD1      -10.3840   -0.3710    2.8940 O.co2  18  ASP18      -0.2456
      8  OD2      -11.1020    0.0550    0.8740 O.co2  18  ASP18      -0.2456
      9  CB        -5.5970    3.3000    3.4360 C.3    19  ILE19       0.0000
     10  CG2       -5.5760    4.4860    4.4030 C.3    19  ILE19       0.0000
     11  CG1       -5.6310    1.9200    4.0640 C.3    19  ILE19       0.0000
     12  CD1       -6.9900    1.6050    4.6860 C.3    19  ILE19       0.0000
     13  CB        -3.4320    5.7300   -0.4270 C.3    20  ILE20       0.0000
     14  CG2       -3.5820    6.5440    0.8320 C.3    20  ILE20       0.0000
     15  CG1       -2.2450    4.7640   -0.5120 C.3    20  ILE20       0.0000
     16  CD1       -0.8400    5.4520   -0.3980 C.3    20  ILE20       0.0000
     17  CB        -7.5990    5.4430   -4.2460 C.3    21  TRP21       0.0066
     18  CG        -8.3150    5.3080   -2.9810 C.3    21  TRP21       0.0452
     19  CD1       -8.5790    4.1850   -2.2770 C.3    21  TRP21       0.1165
     20  NE1       -9.1050    4.4920   -1.0680 N.pl3  21  TRP21      -0.2376
     21  CE2       -9.3070    5.8840   -0.9700 C.ar   21  TRP21       0.0614
     22  CZ2       -9.7230    6.6990    0.0780 C.ar   21  TRP21       0.0158
     23  CH2       -9.7040    8.1030    0.0120 C.ar   21  TRP21       0.0013
     24  CZ3       -9.2660    8.6890   -1.2230 C.ar   21  TRP21      -0.0002
     25  CE3       -8.7230    7.8520   -2.2560 C.ar   21  TRP21      -0.0030
     26  CD2       -8.7940    6.4290   -2.1750 C.ar   21  TRP21      -0.0059
@<TRIPOS>BOND
     1    22    23   ar
     2    22    21   ar
     3    23    24   ar
     4    21    20    1
     5    21    26   ar
     6    24    25   ar
     7    20    19    1
     8    25    26   ar
     9    26    18    1
    10    19    18    1
    11    18    17    1
    12     3     2    1
    13     2     4    1
    14     2     1    1
    15     5     6    1
    16     7     6   ar
    17    13    15    1
    18    13    14    1
    19    15    16    1
    20     6     8   ar
    21     9    11    1
    22     9    10    1
    23    11    12    1
@<TRIPOS>MOLECULE
16004692
 32 34 0 0 0
SMALL
GASTEIGER

@<TRIPOS>ATOM
      1 BR         -8.6730   10.5172   -3.2827 Br      1  LIG11      -0.0503
      2 BR        -16.8336    0.4046    5.8225 Br      1  LIG11      -0.0472
      3 S          -6.2579    5.2116    0.8823 S.O2    1  LIG11       0.1104
      4 O         -11.8372    6.4743    1.3365 O.3     1  LIG11      -0.4724
      5 O          -5.5924    4.1232    1.5619 O.2     1  LIG11      -0.1381
      6 O          -6.6185    6.4406    1.5351 O.2     1  LIG11      -0.1381
      7 O         -15.0469    4.7159    2.1096 O.3     1  LIG11      -0.4590
      8 N          -5.3235    5.5763   -0.4606 N.3     1  LIG11      -0.1771
      9 N          -7.5495    4.5555    0.0415 N.pl3   1  LIG11      -0.1889
     10 N          -8.9261    3.6160    1.5463 N.ar    1  LIG11      -0.2186
     11 N         -10.9627    4.5588    2.2502 N.ar    1  LIG11      -0.2008
     12 N         -16.6665    3.8207    3.4846 N.ar    1  LIG11      -0.2022
     13 N         -14.5866    2.6847    3.2139 N.ar    1  LIG11      -0.2022
     14 C          -3.9663    6.0918   -0.1779 C.3     1  LIG11       0.0185
     15 C          -9.6846    5.7303    0.5567 C.ar    1  LIG11       0.0848
     16 C          -8.7867    4.6744    0.7282 C.ar    1  LIG11       0.1532
     17 C          -2.9466    4.9858   -0.4442 C.3     1  LIG11      -0.0416
     18 C          -9.4741    6.8711   -0.3786 C.ar    1  LIG11      -0.0094
     19 C         -10.8140    5.5523    1.3490 C.ar    1  LIG11       0.2276
     20 C          -1.5185    5.4705   -0.2767 C.3     1  LIG11      -0.0641
     21 C          -8.8280    6.7073   -1.6217 C.ar    1  LIG11      -0.0527
     22 C          -9.8877    8.1798   -0.0588 C.ar    1  LIG11      -0.0527
     23 C         -13.1581    5.9346    1.1323 C.3     1  LIG11       0.1252
     24 C          -8.5764    7.7864   -2.4789 C.ar    1  LIG11      -0.0472
     25 C          -9.6706    9.2600   -0.9258 C.ar    1  LIG11      -0.0472
     26 C         -10.0136    3.6304    2.3032 C.ar    1  LIG11       0.1219
     27 C         -13.6249    4.8666    2.1288 C.3     1  LIG11       0.1267
     28 C          -9.0040    9.0595   -2.1276 C.ar    1  LIG11       0.0179
     29 C         -15.4327    3.7053    2.9743 C.ar    1  LIG11       0.3180
     30 C         -17.0516    2.8336    4.3254 C.ar    1  LIG11       0.0483
     31 C         -15.0250    1.7259    4.0548 C.ar    1  LIG11       0.0483
     32 C         -16.2630    1.7533    4.6492 C.ar    1  LIG11       0.0543
@<TRIPOS>BOND
     1     1    28    1
     2     2    32    1
     3     3     5    2
     4     3     6    2
     5     3     8    1
     6     3     9    1
     7     4    19    1
     8     4    23    1
     9     7    27    1
    10     7    29    1
    11     8    14    1
    12     9    16    1
    13    10    16   ar
    14    10    26   ar
    15    11    19   ar
    16    11    26   ar
    17    12    29   ar
    18    12    30   ar
    19    13    29   ar
    20    13    31   ar
    21    14    17    1
    22    15    16   ar
    23    15    18    1
    24    15    19   ar
    25    17    20    1
    26    18    21   ar
    27    18    22   ar
    28    21    24   ar
    29    22    25   ar
    30    23    27    1
    31    24    28   ar
    32    25    28   ar
    33    30    32   ar
    34    31    32   ar
@<TRIPOS>MOLECULE
../ET1/ET1_17-21_50CONFORMERS.pdb
 47 48 0 0 0
SMALL
GASTEIGER

@<TRIPOS>ATOM
      1  N         -4.6840   -0.0060   -2.1720 N.3    17  LEU17      -0.1231
      2  CA        -5.8870   -0.7440   -2.4980 C.3    17  LEU17       0.1693
      3  CB        -5.8570   -2.2150   -2.0310 C.3    17  LEU17       0.0284
      4  CG        -7.1220   -3.0210   -2.1490 C.3    17  LEU17       0.0019
      5  CD1       -7.7280   -3.0350   -3.5420 C.3    17  LEU17       0.0001
      6  CD2       -6.9000   -4.4680   -1.7520 C.3    17  LEU17       0.0001
      7  C         -7.0570    0.0540   -1.9340 C.2    17  LEU17       0.2592
      8  O         -7.8360    0.5790   -2.7440 O.2    17  LEU17      -0.2718
      9  N         -7.1000    0.2360   -0.5980 N.am   18  ASP18      -0.1960
     10  CA        -8.2720    0.6250    0.1430 C.3    18  ASP18       0.1840
     11  CB        -8.7560   -0.4860    1.0510 C.3    18  ASP18       0.1450
     12  CG       -10.1520   -0.2260    1.6910 C.2    18  ASP18       0.3671
     13  OD1      -10.3840   -0.3710    2.8940 O.co2  18  ASP18      -0.2456
     14  OD2      -11.1020    0.0550    0.8740 O.co2  18  ASP18      -0.2456
     15  C         -8.1150    1.9270    0.9350 C.2    18  ASP18       0.2622
     16  O         -9.0890    2.6460    1.0180 O.2    18  ASP18      -0.2715
     17  N         -6.9720    2.2590    1.5880 N.am   19  ILE19      -0.1963
     18  CA        -6.7050    3.5300    2.3160 C.3    19  ILE19       0.1727
     19  CB        -5.5970    3.3000    3.4360 C.3    19  ILE19       0.0290
     20  CG2       -5.5760    4.4860    4.4030 C.3    19  ILE19       0.0023
     21  CG1       -5.6310    1.9200    4.0640 C.3    19  ILE19       0.0022
     22  CD1       -6.9900    1.6050    4.6860 C.3    19  ILE19       0.0001
     23  C         -6.2780    4.6150    1.3600 C.2    19  ILE19       0.2616
     24  O         -6.6470    5.7730    1.4780 O.2    19  ILE19      -0.2715
     25  N         -5.3290    4.3190    0.4560 N.am   20  ILE20      -0.1963
     26  CA        -4.8630    5.1710   -0.6440 C.3    20  ILE20       0.1727
     27  CB        -3.4320    5.7300   -0.4270 C.3    20  ILE20       0.0290
     28  CG2       -3.5820    6.5440    0.8320 C.3    20  ILE20       0.0023
     29  CG1       -2.2450    4.7640   -0.5120 C.3    20  ILE20       0.0022
     30  CD1       -0.8400    5.4520   -0.3980 C.3    20  ILE20       0.0001
     31  C         -5.1990    4.4560   -1.9450 C.2    20  ILE20       0.2617
     32  O         -5.2380    3.2640   -2.0470 O.2    20  ILE20      -0.2715
     33  N         -5.4510    5.3440   -2.9640 N.am   21  TRP21      -0.1941
     34  CA        -6.1270    5.1130   -4.2700 C.3    21  TRP21       0.1982
     35  CB        -7.5990    5.4430   -4.2460 C.3    21  TRP21       0.0394
     36  CG        -8.3150    5.3080   -2.9810 C.3    21  TRP21       0.0475
     37  CD1       -8.5790    4.1850   -2.2770 C.3    21  TRP21       0.1166
     38  NE1       -9.1050    4.4920   -1.0680 N.pl3  21  TRP21      -0.2376
     39  CE2       -9.3070    5.8840   -0.9700 C.ar   21  TRP21       0.0614
     40  CZ2       -9.7230    6.6990    0.0780 C.ar   21  TRP21       0.0158
     41  CH2       -9.7040    8.1030    0.0120 C.ar   21  TRP21       0.0013
     42  CZ3       -9.2660    8.6890   -1.2230 C.ar   21  TRP21      -0.0002
     43  CE3       -8.7230    7.8520   -2.2560 C.ar   21  TRP21      -0.0030
     44  CD2       -8.7940    6.4290   -2.1750 C.ar   21  TRP21      -0.0059
     45  C         -5.4490    5.7100   -5.5300 C.2    21  TRP21       0.3842
     46  O         -4.6150    6.6320   -5.3360 O.co2  21  TRP21      -0.2437
     47  OXT       -5.6400    5.2380   -6.6790 O.co2  21  TRP21      -0.2437
@<TRIPOS>BOND
     1    40    41   ar
     2    40    39   ar
     3    41    42   ar
     4    39    38    1
     5    39    44   ar
     6    42    43   ar
     7    38    37    1
     8    43    44   ar
     9    44    36    1
    10    37    36    1
    11    36    35    1
    12    47    45   ar
    13     5     4    1
    14    35    34    1
    15    45    34    1
    16    45    46   ar
    17    34    33    1
    18     8     7    2
    19     4     6    1
    20     4     3    1
    21     2     3    1
    22     2     1    1
    23     2     7    1
    24     7     9   am
    25    33    31   am
    26    32    31    2
    27    31    26    1
    28     9    10    1
    29    10    11    1
    30    10    15    1
    31    26    27    1
    32    26    25    1
    33    11    12    1
    34    13    12   ar
    35    27    29    1
    36    27    28    1
    37    29    30    1
    38    16    15    2
    39    15    17   am
    40    12    14   ar
    41    25    23   am
    42    17    18    1
    43    23    24    2
    44    23    18    1
    45    18    19    1
    46    19    21    1
    47    19    20    1
    48    21    22    1
