@<TRIPOS>MOLECULE
../ET1/ET1_17-21_50CONFORMERS_NOBACKBONE.pdb
 26 23 0 0 0
SMALL
GASTEIGER

@<TRIPOS>ATOM
      1  CB        -6.1310   -1.8090   -0.5270 C.3    17  LEU17       0.0000
      2  CG        -7.4070   -2.7000   -0.5300 C.3    17  LEU17       0.0000
      3  CD1       -7.7160   -3.1950   -1.9390 C.3    17  LEU17       0.0000
      4  CD2       -7.2270   -3.7850    0.5500 C.3    17  LEU17       0.0000
      5  CB        -9.5320    1.0750    0.8580 C.3    18  ASP18       0.1258
      6  CG       -10.7800    2.0020    0.9270 C.2    18  ASP18       0.3654
      7  OD1      -11.6450    1.9960    0.0150 O.co2  18  ASP18      -0.2456
      8  OD2      -10.9480    2.6740    1.9790 O.co2  18  ASP18      -0.2456
      9  CB        -5.5200    4.0560    3.1630 C.3    19  ILE19       0.0000
     10  CG2       -4.6340    5.2440    3.6770 C.3    19  ILE19       0.0000
     11  CG1       -6.3440    3.4570    4.3090 C.3    19  ILE19       0.0000
     12  CD1       -5.5140    2.5520    5.2940 C.3    19  ILE19       0.0000
     13  CB        -2.7570    4.7950   -1.0380 C.3    20  ILE20       0.0000
     14  CG2       -2.0870    5.2180   -2.4190 C.3    20  ILE20       0.0000
     15  CG1       -2.0630    5.5960    0.0600 C.3    20  ILE20       0.0000
     16  CD1       -0.5780    5.4070   -0.0470 C.3    20  ILE20       0.0000
     17  CB        -7.6200    3.7070   -3.9320 C.3    21  TRP21       0.0066
     18  CG        -8.3010    2.9550   -4.9610 C.3    21  TRP21       0.0452
     19  CD1       -9.5490    3.2390   -5.4270 C.3    21  TRP21       0.1165
     20  NE1       -9.9110    2.3770   -6.4370 N.pl3  21  TRP21      -0.2376
     21  CE2       -8.8950    1.4430   -6.6670 C.ar   21  TRP21       0.0614
     22  CZ2       -8.6550    0.3710   -7.5990 C.ar   21  TRP21       0.0158
     23  CH2       -7.4400   -0.3430   -7.5640 C.ar   21  TRP21       0.0013
     24  CZ3       -6.5670   -0.0430   -6.5570 C.ar   21  TRP21      -0.0002
     25  CE3       -6.7650    0.9330   -5.6460 C.ar   21  TRP21      -0.0030
     26  CD2       -7.9320    1.7440   -5.7080 C.ar   21  TRP21      -0.0059
@<TRIPOS>BOND
     1    22    23   ar
     2    22    21   ar
     3    23    24   ar
     4    21    20    1
     5    21    26   ar
     6    24    25   ar
     7    20    19    1
     8    25    26   ar
     9    26    18    1
    10    19    18    1
    11    18    17    1
    12     3     2    1
    13     2     4    1
    14     2     1    1
    15     5     6    1
    16     7     6   ar
    17    13    15    1
    18    13    14    1
    19    15    16    1
    20     6     8   ar
    21     9    11    1
    22     9    10    1
    23    11    12    1
@<TRIPOS>MOLECULE
178103
 37 41 0 0 0
SMALL
GASTEIGER

@<TRIPOS>ATOM
      1 O         -10.1909    3.2281   -3.1604 O.co2   1  LIG11      -0.5495
      2 O          -9.4807    4.7206   -4.7239 O.co2   1  LIG11      -0.5495
      3 O          -2.1374    4.4444   -3.8051 O.3     1  LIG11      -0.4920
      4 O          -5.9990    1.2648   -2.3023 O.3     1  LIG11      -0.4893
      5 O          -9.3031    0.5244   -9.2683 O.3     1  LIG11      -0.4526
      6 O          -8.3649   -1.5822   -8.5554 O.3     1  LIG11      -0.4526
      7 O          -6.6820    2.0990    2.3517 O.3     1  LIG11      -0.4950
      8 O          -3.8489   -0.0190   -3.6335 O.3     1  LIG11      -0.3917
      9 C          -8.0153    2.9822   -4.0301 C.3     1  LIG11       0.0203
     10 C          -7.0961    3.7936   -3.0864 C.3     1  LIG11       0.0218
     11 C          -7.3648    3.0143   -5.4333 C.3     1  LIG11       0.0184
     12 C          -5.7668    3.7647   -3.8120 C.ar    1  LIG11      -0.0320
     13 C          -5.9101    3.2915   -5.1163 C.ar    1  LIG11      -0.0353
     14 C          -7.0300    3.2802   -1.6480 C.ar    1  LIG11       0.0025
     15 C          -7.6066    1.7446   -6.2355 C.ar    1  LIG11      -0.0356
     16 C          -9.3551    3.7081   -3.9788 C.2     1  LIG11       0.0466
     17 C          -4.5301    4.1794   -3.3281 C.ar    1  LIG11      -0.0159
     18 C          -4.8072    3.1996   -5.9535 C.ar    1  LIG11      -0.0542
     19 C          -6.4573    2.0456   -1.2796 C.ar    1  LIG11       0.1278
     20 C          -3.4137    4.0910   -4.1597 C.ar    1  LIG11       0.1208
     21 C          -8.3912    1.8022   -7.4011 C.ar    1  LIG11      -0.0124
     22 C          -3.5548    3.5816   -5.4603 C.ar    1  LIG11      -0.0196
     23 C          -7.0659    0.4999   -5.8340 C.ar    1  LIG11      -0.0543
     24 C          -7.5545    4.1066   -0.6380 C.ar    1  LIG11      -0.0510
     25 C          -8.5880    0.6395   -8.1163 C.ar    1  LIG11       0.1665
     26 C          -7.2866   -0.6649   -6.5733 C.ar    1  LIG11      -0.0159
     27 C          -6.3453    1.7162    0.0766 C.ar    1  LIG11       0.0221
     28 C          -7.4723    3.7487    0.7094 C.ar    1  LIG11      -0.0194
     29 C          -8.0507   -0.5612   -7.7117 C.ar    1  LIG11       0.1662
     30 C          -6.8554    2.5565    1.0720 C.ar    1  LIG11       0.1236
     31 C          -2.0074    5.4068   -2.7558 C.3     1  LIG11       0.0893
     32 C          -9.1772   -0.8875   -9.5223 C.3     1  LIG11       0.2332
     33 C          -5.7156   -0.1174   -2.0897 C.3     1  LIG11       0.1126
     34 C          -1.7414    4.7171   -1.4199 C.3     1  LIG11      -0.0215
     35 C          -4.2185   -0.3234   -2.2890 C.3     1  LIG11       0.0783
     36 C          -7.2842    2.8658    3.3864 C.3     1  LIG11       0.0788
     37 C          -1.6946    5.7168   -0.2774 C.3     1  LIG11      -0.0622
@<TRIPOS>BOND
     1     1    16   ar
     2     2    16   ar
     3     3    20    1
     4     3    31    1
     5     4    19    1
     6     4    33    1
     7     5    25    1
     8     5    32    1
     9     6    29    1
    10     6    32    1
    11     7    30    1
    12     7    36    1
    13     8    35    1
    14     9    10    1
    15     9    11    1
    16     9    16    1
    17    10    12    1
    18    10    14    1
    19    11    13    1
    20    11    15    1
    21    12    13   ar
    22    12    17   ar
    23    13    18   ar
    24    14    19   ar
    25    14    24   ar
    26    15    21   ar
    27    15    23   ar
    28    17    20   ar
    29    18    22   ar
    30    19    27   ar
    31    20    22   ar
    32    21    25   ar
    33    23    26   ar
    34    24    28   ar
    35    25    29   ar
    36    26    29   ar
    37    27    30   ar
    38    28    30   ar
    39    31    34    1
    40    33    35    1
    41    34    37    1
@<TRIPOS>MOLECULE
../ET1/ET1_17-21_50CONFORMERS.pdb
 47 48 0 0 0
SMALL
GASTEIGER

@<TRIPOS>ATOM
      1  N         -4.7730    0.0050   -1.4620 N.3    17  LEU17      -0.1231
      2  CA        -6.0920   -0.6930   -1.5710 C.3    17  LEU17       0.1693
      3  CB        -6.1310   -1.8090   -0.5270 C.3    17  LEU17       0.0284
      4  CG        -7.4070   -2.7000   -0.5300 C.3    17  LEU17       0.0019
      5  CD1       -7.7160   -3.1950   -1.9390 C.3    17  LEU17       0.0001
      6  CD2       -7.2270   -3.7850    0.5500 C.3    17  LEU17       0.0001
      7  C         -7.2220    0.3070   -1.6030 C.2    17  LEU17       0.2592
      8  O         -8.0160    0.3050   -2.5560 O.2    17  LEU17      -0.2718
      9  N         -7.4110    0.9590   -0.4240 N.am   18  ASP18      -0.1960
     10  CA        -8.5230    1.8150   -0.0260 C.3    18  ASP18       0.1840
     11  CB        -9.5320    1.0750    0.8580 C.3    18  ASP18       0.1450
     12  CG       -10.7800    2.0020    0.9270 C.2    18  ASP18       0.3671
     13  OD1      -11.6450    1.9960    0.0150 O.co2  18  ASP18      -0.2456
     14  OD2      -10.9480    2.6740    1.9790 O.co2  18  ASP18      -0.2456
     15  C         -8.1630    3.1480    0.5720 C.2    18  ASP18       0.2622
     16  O         -8.4870    4.2060    0.0570 O.2    18  ASP18      -0.2715
     17  N         -7.1580    3.1700    1.4870 N.am   19  ILE19      -0.1963
     18  CA        -6.5010    4.4100    2.0140 C.3    19  ILE19       0.1727
     19  CB        -5.5200    4.0560    3.1630 C.3    19  ILE19       0.0290
     20  CG2       -4.6340    5.2440    3.6770 C.3    19  ILE19       0.0023
     21  CG1       -6.3440    3.4570    4.3090 C.3    19  ILE19       0.0022
     22  CD1       -5.5140    2.5520    5.2940 C.3    19  ILE19       0.0001
     23  C         -5.8540    5.2020    0.9170 C.2    19  ILE19       0.2616
     24  O         -6.0890    6.3900    0.7170 O.2    19  ILE19      -0.2715
     25  N         -4.9340    4.5760    0.1200 N.am   20  ILE20      -0.1963
     26  CA        -4.3050    5.0560   -1.1210 C.3    20  ILE20       0.1727
     27  CB        -2.7570    4.7950   -1.0380 C.3    20  ILE20       0.0290
     28  CG2       -2.0870    5.2180   -2.4190 C.3    20  ILE20       0.0023
     29  CG1       -2.0630    5.5960    0.0600 C.3    20  ILE20       0.0022
     30  CD1       -0.5780    5.4070   -0.0470 C.3    20  ILE20       0.0001
     31  C         -5.0000    4.2460   -2.2800 C.2    20  ILE20       0.2617
     32  O         -4.8970    3.0140   -2.3930 O.2    20  ILE20      -0.2715
     33  N         -5.6430    4.9710   -3.2380 N.am   21  TRP21      -0.1941
     34  CA        -6.2760    4.3970   -4.3640 C.3    21  TRP21       0.1982
     35  CB        -7.6200    3.7070   -3.9320 C.3    21  TRP21       0.0394
     36  CG        -8.3010    2.9550   -4.9610 C.3    21  TRP21       0.0475
     37  CD1       -9.5490    3.2390   -5.4270 C.3    21  TRP21       0.1166
     38  NE1       -9.9110    2.3770   -6.4370 N.pl3  21  TRP21      -0.2376
     39  CE2       -8.8950    1.4430   -6.6670 C.ar   21  TRP21       0.0614
     40  CZ2       -8.6550    0.3710   -7.5990 C.ar   21  TRP21       0.0158
     41  CH2       -7.4400   -0.3430   -7.5640 C.ar   21  TRP21       0.0013
     42  CZ3       -6.5670   -0.0430   -6.5570 C.ar   21  TRP21      -0.0002
     43  CE3       -6.7650    0.9330   -5.6460 C.ar   21  TRP21      -0.0030
     44  CD2       -7.9320    1.7440   -5.7080 C.ar   21  TRP21      -0.0059
     45  C         -6.6270    5.5290   -5.4110 C.2    21  TRP21       0.3842
     46  O         -6.5990    5.2250   -6.6440 O.co2  21  TRP21      -0.2437
     47  OXT       -7.0570    6.6710   -5.0490 O.co2  21  TRP21      -0.2437
@<TRIPOS>BOND
     1    40    41   ar
     2    40    39   ar
     3    41    42   ar
     4    39    38    1
     5    39    44   ar
     6    42    43   ar
     7    38    37    1
     8    43    44   ar
     9    44    36    1
    10    37    36    1
    11    36    35    1
    12    47    45   ar
    13     5     4    1
    14    35    34    1
    15    45    34    1
    16    45    46   ar
    17    34    33    1
    18     8     7    2
    19     4     6    1
    20     4     3    1
    21     2     3    1
    22     2     1    1
    23     2     7    1
    24     7     9   am
    25    33    31   am
    26    32    31    2
    27    31    26    1
    28     9    10    1
    29    10    11    1
    30    10    15    1
    31    26    27    1
    32    26    25    1
    33    11    12    1
    34    13    12   ar
    35    27    29    1
    36    27    28    1
    37    29    30    1
    38    16    15    2
    39    15    17   am
    40    12    14   ar
    41    25    23   am
    42    17    18    1
    43    23    24    2
    44    23    18    1
    45    18    19    1
    46    19    21    1
    47    19    20    1
    48    21    22    1
