@<TRIPOS>MOLECULE
../ET1/ET1_17-21_50CONFORMERS_NOBACKBONE.pdb
 26 23 0 0 0
SMALL
GASTEIGER

@<TRIPOS>ATOM
      1  CB        -6.5650   -1.4580   -0.3110 C.3    17  LEU17       0.0000
      2  CG        -7.7460   -2.4340   -0.5060 C.3    17  LEU17       0.0000
      3  CD1       -7.8580   -3.0370   -1.9450 C.3    17  LEU17       0.0000
      4  CD2       -7.5480   -3.6660    0.4700 C.3    17  LEU17       0.0000
      5  CB        -9.1830    2.2270    1.2540 C.3    18  ASP18       0.1258
      6  CG       -10.1190    3.2280    1.8640 C.2    18  ASP18       0.3654
      7  OD1      -11.1530    3.6680    1.3060 O.co2  18  ASP18      -0.2456
      8  OD2       -9.7570    3.7260    2.9640 O.co2  18  ASP18      -0.2456
      9  CB        -5.0730    4.9940    2.8050 C.3    19  ILE19       0.0000
     10  CG2       -4.3720    6.2200    3.3260 C.3    19  ILE19       0.0000
     11  CG1       -5.9700    4.4790    3.9280 C.3    19  ILE19       0.0000
     12  CD1       -5.1800    3.8570    5.1220 C.3    19  ILE19       0.0000
     13  CB        -2.1460    4.3850   -1.3300 C.3    20  ILE20       0.0000
     14  CG2       -1.2570    4.4980   -2.6400 C.3    20  ILE20       0.0000
     15  CG1       -1.4410    5.1330   -0.1760 C.3    20  ILE20       0.0000
     16  CD1        0.0370    4.7250    0.0590 C.3    20  ILE20       0.0000
     17  CB        -7.2260    3.9060   -3.9570 C.3    21  TRP21       0.0066
     18  CG        -8.0780    3.1360   -4.9220 C.3    21  TRP21       0.0452
     19  CD1       -9.0450    3.6780   -5.6240 C.3    21  TRP21       0.1165
     20  NE1       -9.5590    2.7360   -6.4910 N.pl3  21  TRP21      -0.2376
     21  CE2       -8.9590    1.4790   -6.3190 C.ar   21  TRP21       0.0614
     22  CZ2       -9.1040    0.2160   -6.8210 C.ar   21  TRP21       0.0158
     23  CH2       -8.4150   -0.9370   -6.3400 C.ar   21  TRP21       0.0013
     24  CZ3       -7.4180   -0.6890   -5.3420 C.ar   21  TRP21      -0.0002
     25  CE3       -7.2370    0.6130   -4.8350 C.ar   21  TRP21      -0.0030
     26  CD2       -8.0160    1.7350   -5.2970 C.ar   21  TRP21      -0.0059
@<TRIPOS>BOND
     1    22    23   ar
     2    22    21   ar
     3    23    24   ar
     4    21    20    1
     5    21    26   ar
     6    24    25   ar
     7    20    19    1
     8    25    26   ar
     9    26    18    1
    10    19    18    1
    11    18    17    1
    12     3     2    1
    13     2     4    1
    14     2     1    1
    15     5     6    1
    16     7     6   ar
    17    13    15    1
    18    13    14    1
    19    15    16    1
    20     6     8   ar
    21     9    11    1
    22     9    10    1
    23    11    12    1
@<TRIPOS>MOLECULE
9939443
 43 47 0 0 0
SMALL
GASTEIGER

@<TRIPOS>ATOM
      1 S          -2.5284   -0.6171   -4.9005 S.O2    1  LIG11       0.0908
      2 O          -5.8370   -1.5905   -4.3299 O.3     1  LIG11      -0.4435
      3 O          -3.5717   -0.3482   -5.8653 O.2     1  LIG11      -0.1484
      4 O          -1.2311   -1.0973   -5.3470 O.2     1  LIG11      -0.1484
      5 O          -7.4700   -0.7759   -1.9634 O.3     1  LIG11      -0.4715
      6 O          -7.3182   -2.8142   -6.3402 O.3     1  LIG11      -0.4914
      7 O          -6.5455   -3.7930   -1.7386 O.3     1  LIG11      -0.3917
      8 N          -3.0614   -1.7800   -3.7916 N.pl3   1  LIG11      -0.1950
      9 N          -3.3720    1.5394   -3.5752 N.ar    1  LIG11      -0.2351
     10 N          -3.4156   -1.0157   -1.6945 N.ar    1  LIG11      -0.2073
     11 N          -5.5475   -0.4347   -0.8368 N.ar    1  LIG11      -0.1899
     12 N          -2.2829    1.2452    2.6731 N.ar    1  LIG11      -0.2552
     13 N           0.6105    1.2362    2.7975 N.ar    1  LIG11      -0.5621
     14 N           0.7176    0.6053    0.6285 N.ar    1  LIG11      -0.1535
     15 N           1.8539    1.1717    2.3077 N.ar    1  LIG11      -0.3597
     16 N           1.9651    0.8087    1.0251 N.ar    1  LIG11      -0.0878
     17 C          -1.8773    4.3538   -1.5242 C.3     1  LIG11      -0.0201
     18 C          -1.9482    3.0939   -2.3640 C.ar    1  LIG11      -0.0266
     19 C          -0.7577    4.3484   -0.4796 C.3     1  LIG11      -0.0586
     20 C          -1.7566    5.5835   -2.4271 C.3     1  LIG11      -0.0586
     21 C          -2.2425    0.8674   -3.9260 C.ar    1  LIG11       0.1969
     22 C          -0.8172    2.3713   -2.7670 C.ar    1  LIG11      -0.0535
     23 C          -3.1906    2.6353   -2.8087 C.ar    1  LIG11       0.0332
     24 C          -0.9584    1.2358   -3.5616 C.ar    1  LIG11      -0.0160
     25 C          -4.0228   -1.3447   -2.8452 C.ar    1  LIG11       0.1882
     26 C          -5.3718   -1.2187   -3.1074 C.ar    1  LIG11       0.2307
     27 C          -6.1057   -0.8425   -2.0006 C.ar    1  LIG11       0.2641
     28 C          -4.2118   -0.5078   -0.7442 C.ar    1  LIG11       0.1659
     29 C          -3.5576    0.0733    0.4421 C.ar    1  LIG11       0.0227
     30 C          -6.7702   -0.8351   -5.0033 C.ar    1  LIG11       0.1702
     31 C          -2.1573    0.1669    0.5260 C.ar    1  LIG11      -0.0252
     32 C          -4.2940    0.5902    1.5149 C.ar    1  LIG11      -0.0328
     33 C          -8.1498   -2.0216   -2.1771 C.3     1  LIG11       0.1143
     34 C          -7.5157   -1.5007   -5.9906 C.ar    1  LIG11       0.1621
     35 C          -1.5578    0.7506    1.6391 C.ar    1  LIG11       0.0708
     36 C          -7.0131    0.5220   -4.7691 C.ar    1  LIG11      -0.0157
     37 C          -3.6251    1.1544    2.5885 C.ar    1  LIG11       0.0289
     38 C          -7.7259   -3.1598   -1.2461 C.3     1  LIG11       0.0783
     39 C          -8.5722   -0.8544   -6.6344 C.ar    1  LIG11      -0.0163
     40 C          -8.0570    1.1731   -5.4341 C.ar    1  LIG11      -0.0581
     41 C          -8.8470    0.4816   -6.3517 C.ar    1  LIG11      -0.0581
     42 C          -0.0988    0.8667    1.7127 C.ar    1  LIG11       0.0207
     43 C          -5.9797   -3.0595   -6.7811 C.3     1  LIG11       0.0790
@<TRIPOS>BOND
     1     1    21    1
     2     1     8    1
     3     1     4    2
     4     1     3    2
     5     2    26    1
     6     2    30    1
     7     5    27    1
     8     5    33    1
     9     6    34    1
    10     6    43    1
    11     7    38    1
    12     8    25    1
    13     9    23   ar
    14     9    21   ar
    15    10    25   ar
    16    10    28   ar
    17    11    27   ar
    18    11    28   ar
    19    12    37   ar
    20    12    35   ar
    21    13    15   ar
    22    13    42   ar
    23    14    42   ar
    24    14    16   ar
    25    15    16   ar
    26    17    18    1
    27    17    20    1
    28    17    19    1
    29    18    23   ar
    30    18    22   ar
    31    21    24   ar
    32    22    24   ar
    33    25    26   ar
    34    26    27   ar
    35    28    29    1
    36    29    31   ar
    37    29    32   ar
    38    30    36   ar
    39    30    34   ar
    40    31    35   ar
    41    32    37   ar
    42    33    38    1
    43    34    39   ar
    44    35    42    1
    45    36    40   ar
    46    39    41   ar
    47    40    41   ar
@<TRIPOS>MOLECULE
../ET1/ET1_17-21_50CONFORMERS.pdb
 47 48 0 0 0
SMALL
GASTEIGER

@<TRIPOS>ATOM
      1  N         -5.1240    0.2200   -1.1680 N.3    17  LEU17      -0.1231
      2  CA        -6.4290   -0.3520   -1.3470 C.3    17  LEU17       0.1693
      3  CB        -6.5650   -1.4580   -0.3110 C.3    17  LEU17       0.0284
      4  CG        -7.7460   -2.4340   -0.5060 C.3    17  LEU17       0.0019
      5  CD1       -7.8580   -3.0370   -1.9450 C.3    17  LEU17       0.0001
      6  CD2       -7.5480   -3.6660    0.4700 C.3    17  LEU17       0.0001
      7  C         -7.5570    0.7230   -1.1910 C.2    17  LEU17       0.2592
      8  O         -8.5080    0.5920   -1.9290 O.2    17  LEU17      -0.2718
      9  N         -7.3530    1.6930   -0.3160 N.am   18  ASP18      -0.1960
     10  CA        -8.3710    2.6970    0.0290 C.3    18  ASP18       0.1840
     11  CB        -9.1830    2.2270    1.2540 C.3    18  ASP18       0.1450
     12  CG       -10.1190    3.2280    1.8640 C.2    18  ASP18       0.3671
     13  OD1      -11.1530    3.6680    1.3060 O.co2  18  ASP18      -0.2456
     14  OD2       -9.7570    3.7260    2.9640 O.co2  18  ASP18      -0.2456
     15  C         -7.6950    4.0470    0.2940 C.2    18  ASP18       0.2622
     16  O         -8.1320    5.0650   -0.2880 O.2    18  ASP18      -0.2715
     17  N         -6.7180    4.0860    1.1840 N.am   19  ILE19      -0.1963
     18  CA        -5.9940    5.2620    1.5960 C.3    19  ILE19       0.1727
     19  CB        -5.0730    4.9940    2.8050 C.3    19  ILE19       0.0290
     20  CG2       -4.3720    6.2200    3.3260 C.3    19  ILE19       0.0023
     21  CG1       -5.9700    4.4790    3.9280 C.3    19  ILE19       0.0022
     22  CD1       -5.1800    3.8570    5.1220 C.3    19  ILE19       0.0001
     23  C         -5.0600    5.7250    0.4830 C.2    19  ILE19       0.2616
     24  O         -4.9460    6.9140    0.1610 O.2    19  ILE19      -0.2715
     25  N         -4.3130    4.7870   -0.1330 N.am   20  ILE20      -0.1963
     26  CA        -3.5800    4.9710   -1.3970 C.3    20  ILE20       0.1727
     27  CB        -2.1460    4.3850   -1.3300 C.3    20  ILE20       0.0290
     28  CG2       -1.2570    4.4980   -2.6400 C.3    20  ILE20       0.0023
     29  CG1       -1.4410    5.1330   -0.1760 C.3    20  ILE20       0.0022
     30  CD1        0.0370    4.7250    0.0590 C.3    20  ILE20       0.0001
     31  C         -4.3770    4.3220   -2.4840 C.2    20  ILE20       0.2617
     32  O         -4.3780    3.0980   -2.4750 O.2    20  ILE20      -0.2715
     33  N         -5.1280    5.0160   -3.3140 N.am   21  TRP21      -0.1941
     34  CA        -5.8240    4.4130   -4.4310 C.3    21  TRP21       0.1982
     35  CB        -7.2260    3.9060   -3.9570 C.3    21  TRP21       0.0394
     36  CG        -8.0780    3.1360   -4.9220 C.3    21  TRP21       0.0475
     37  CD1       -9.0450    3.6780   -5.6240 C.3    21  TRP21       0.1166
     38  NE1       -9.5590    2.7360   -6.4910 N.pl3  21  TRP21      -0.2376
     39  CE2       -8.9590    1.4790   -6.3190 C.ar   21  TRP21       0.0614
     40  CZ2       -9.1040    0.2160   -6.8210 C.ar   21  TRP21       0.0158
     41  CH2       -8.4150   -0.9370   -6.3400 C.ar   21  TRP21       0.0013
     42  CZ3       -7.4180   -0.6890   -5.3420 C.ar   21  TRP21      -0.0002
     43  CE3       -7.2370    0.6130   -4.8350 C.ar   21  TRP21      -0.0030
     44  CD2       -8.0160    1.7350   -5.2970 C.ar   21  TRP21      -0.0059
     45  C         -5.8960    5.3640   -5.6200 C.2    21  TRP21       0.3842
     46  O         -5.4660    5.0720   -6.7740 O.co2  21  TRP21      -0.2437
     47  OXT       -6.0980    6.5780   -5.4070 O.co2  21  TRP21      -0.2437
@<TRIPOS>BOND
     1    40    41   ar
     2    40    39   ar
     3    41    42   ar
     4    39    38    1
     5    39    44   ar
     6    42    43   ar
     7    38    37    1
     8    43    44   ar
     9    44    36    1
    10    37    36    1
    11    36    35    1
    12    47    45   ar
    13     5     4    1
    14    35    34    1
    15    45    34    1
    16    45    46   ar
    17    34    33    1
    18     8     7    2
    19     4     6    1
    20     4     3    1
    21     2     3    1
    22     2     1    1
    23     2     7    1
    24     7     9   am
    25    33    31   am
    26    32    31    2
    27    31    26    1
    28     9    10    1
    29    10    11    1
    30    10    15    1
    31    26    27    1
    32    26    25    1
    33    11    12    1
    34    13    12   ar
    35    27    29    1
    36    27    28    1
    37    29    30    1
    38    16    15    2
    39    15    17   am
    40    12    14   ar
    41    25    23   am
    42    17    18    1
    43    23    24    2
    44    23    18    1
    45    18    19    1
    46    19    21    1
    47    19    20    1
    48    21    22    1
