@<TRIPOS>MOLECULE
../ET1/ET1_17-21_50CONFORMERS_NOBACKBONE.pdb
 26 23 0 0 0
SMALL
GASTEIGER

@<TRIPOS>ATOM
      1  CB        -5.7410   -1.6660   -0.9970 C.3    17  LEU17       0.0000
      2  CG        -7.0800   -2.4770   -1.0040 C.3    17  LEU17       0.0000
      3  CD1       -7.0720   -3.6360   -1.8940 C.3    17  LEU17       0.0000
      4  CD2       -7.2270   -3.0350    0.3960 C.3    17  LEU17       0.0000
      5  CB        -9.0140    2.0580   -0.6430 C.3    18  ASP18       0.1258
      6  CG        -9.9230    3.2540   -0.8450 C.2    18  ASP18       0.3654
      7  OD1      -10.4270    3.4060   -2.0000 O.co2  18  ASP18      -0.2456
      8  OD2      -10.1710    4.0160    0.1240 O.co2  18  ASP18      -0.2456
      9  CB        -5.1660    3.8070    3.1390 C.3    19  ILE19       0.0000
     10  CG2       -4.2870    4.9150    3.8120 C.3    19  ILE19       0.0000
     11  CG1       -6.4310    3.4720    3.9910 C.3    19  ILE19       0.0000
     12  CD1       -6.0780    2.8870    5.3860 C.3    19  ILE19       0.0000
     13  CB        -1.7990    4.4960   -1.1570 C.3    20  ILE20       0.0000
     14  CG2       -0.9550    4.5180   -2.4510 C.3    20  ILE20       0.0000
     15  CG1       -1.1240    5.3340   -0.0410 C.3    20  ILE20       0.0000
     16  CD1        0.3720    5.2830   -0.0060 C.3    20  ILE20       0.0000
     17  CB        -5.9730    3.7280   -4.7280 C.3    21  TRP21       0.0066
     18  CG        -6.5950    3.0710   -5.9210 C.3    21  TRP21       0.0452
     19  CD1       -7.4580    3.7380   -6.7610 C.3    21  TRP21       0.1165
     20  NE1       -7.8220    2.9010   -7.7810 N.pl3  21  TRP21      -0.2376
     21  CE2       -7.4510    1.6160   -7.4090 C.ar   21  TRP21       0.0614
     22  CZ2       -7.8370    0.3550   -7.8470 C.ar   21  TRP21       0.0158
     23  CH2       -7.2100   -0.7860   -7.3500 C.ar   21  TRP21       0.0013
     24  CZ3       -6.2620   -0.6970   -6.3170 C.ar   21  TRP21      -0.0002
     25  CE3       -5.9790    0.5650   -5.8550 C.ar   21  TRP21      -0.0030
     26  CD2       -6.5680    1.7210   -6.3420 C.ar   21  TRP21      -0.0059
@<TRIPOS>BOND
     1    22    23   ar
     2    22    21   ar
     3    23    24   ar
     4    21    20    1
     5    21    26   ar
     6    24    25   ar
     7    20    19    1
     8    25    26   ar
     9    26    18    1
    10    19    18    1
    11    18    17    1
    12     3     2    1
    13     2     4    1
    14     2     1    1
    15     5     6    1
    16     7     6   ar
    17    13    15    1
    18    13    14    1
    19    15    16    1
    20     6     8   ar
    21     9    11    1
    22     9    10    1
    23    11    12    1
@<TRIPOS>MOLECULE
2-[[2-[2-butyl-4-[(Z)-2-carboxy-3-(6-methoxy-1,3-benzodioxol-5-yl)prop-1-enyl]pyrazol-3-yl]-5-methoxyphenoxy]methyl]benzoic acid
 45 49 0 0 0
SMALL
GASTEIGER

@<TRIPOS>ATOM
      1 O          -3.3993    1.0440   -2.8450 O.3     1  LIG11      -0.4866
      2 O          -9.1907   -1.2153   -7.4184 O.3     1  LIG11      -0.4526
      3 O          -7.1348   -2.4600   -7.5990 O.3     1  LIG11      -0.4525
      4 O          -4.4940    1.5851   -6.9699 O.3     1  LIG11      -0.4947
      5 O          -2.1907    2.6301    1.5511 O.3     1  LIG11      -0.4950
      6 O          -6.3556    5.8002   -6.0259 O.co2   1  LIG11      -0.5449
      7 O          -4.4569    5.1742   -4.9377 O.co2   1  LIG11      -0.5449
      8 O          -1.1686   -1.0670   -1.7988 O.co2   1  LIG11      -0.5446
      9 O          -1.8120   -1.6150   -3.9131 O.co2   1  LIG11      -0.5446
     10 N          -7.2032    0.3618   -1.9033 N.ar    1  LIG11      -0.2630
     11 N          -8.2177    0.3338   -2.7993 N.ar    1  LIG11      -0.1785
     12 C          -6.2362    1.3187   -2.1878 C.ar    1  LIG11       0.0795
     13 C          -7.4235   -0.3316   -0.6449 C.3     1  LIG11       0.0422
     14 C          -7.7339   -1.8271   -0.7343 C.3     1  LIG11      -0.0336
     15 C          -6.6573    1.9096   -3.3780 C.ar    1  LIG11       0.0207
     16 C          -5.1278    1.6604   -1.2757 C.ar    1  LIG11       0.0425
     17 C          -6.4652   -2.6786   -0.6924 C.3     1  LIG11      -0.0542
     18 C          -7.8721    1.2704   -3.6837 C.ar    1  LIG11       0.0571
     19 C          -6.0815    3.0652   -3.9943 C.2     1  LIG11      -0.0459
     20 C          -6.8739    3.0675   -6.5035 C.3     1  LIG11       0.0029
     21 C          -3.7719    1.5151   -1.6050 C.ar    1  LIG11       0.1336
     22 C          -6.2067    3.5643   -5.2444 C.2     1  LIG11      -0.0200
     23 C          -6.8600    1.5821   -6.8268 C.ar    1  LIG11       0.0023
     24 C          -5.4423    2.1675   -0.0010 C.ar    1  LIG11      -0.0456
     25 C          -6.7950   -4.1496   -0.4894 C.3     1  LIG11      -0.0652
     26 C          -2.7707    1.7922   -0.6610 C.ar    1  LIG11       0.0224
     27 C          -5.6528    0.8532   -6.9984 C.ar    1  LIG11       0.1273
     28 C          -8.0953    0.9251   -7.0154 C.ar    1  LIG11      -0.0092
     29 C          -4.4450    2.4636    0.9304 C.ar    1  LIG11      -0.0191
     30 C          -8.0916   -0.4290   -7.2583 C.ar    1  LIG11       0.1667
     31 C          -3.1095    2.2975    0.5890 C.ar    1  LIG11       0.1236
     32 C          -6.9202   -1.1365   -7.3593 C.ar    1  LIG11       0.1697
     33 C          -5.6896   -0.5269   -7.2485 C.ar    1  LIG11       0.0258
     34 C          -5.6006    4.9763   -5.4254 C.2     1  LIG11       0.0680
     35 C          -2.5915    1.9909   -3.5586 C.3     1  LIG11       0.1153
     36 C          -8.5690   -2.5133   -7.4907 C.3     1  LIG11       0.2332
     37 C          -1.1303    1.6173   -3.8001 C.ar    1  LIG11      -0.0016
     38 C          -0.5477    0.3517   -3.5784 C.ar    1  LIG11       0.0037
     39 C          -0.3055    2.6338   -4.3316 C.ar    1  LIG11      -0.0547
     40 C          -3.2745    0.8561   -6.8773 C.3     1  LIG11       0.0788
     41 C           0.8196    0.1548   -3.8664 C.ar    1  LIG11      -0.0525
     42 C           1.0471    2.4211   -4.6158 C.ar    1  LIG11      -0.0614
     43 C          -1.1162    3.4091    1.0265 C.3     1  LIG11       0.0788
     44 C           1.6141    1.1776   -4.3799 C.ar    1  LIG11      -0.0611
     45 C          -1.2835   -0.8481   -3.0473 C.2     1  LIG11       0.0720
@<TRIPOS>BOND
     1     1    35    1
     2     1    21    1
     3     2    36    1
     4     2    30    1
     5     3    32    1
     6     3    36    1
     7     4    27    1
     8     4    40    1
     9     5    31    1
    10     5    43    1
    11     6    34   ar
    12     7    34   ar
    13     8    45   ar
    14     9    45   ar
    15    10    11   ar
    16    10    12   ar
    17    10    13    1
    18    11    18   ar
    19    12    15   ar
    20    13    14    1
    21    14    17    1
    22    15    18   ar
    23    15    19    1
    24    16    24   ar
    25    16    21   ar
    26    16    12    1
    27    17    25    1
    28    19    22    2
    29    20    22    1
    30    20    23    1
    31    21    26   ar
    32    22    34    1
    33    23    28   ar
    34    23    27   ar
    35    24    29   ar
    36    26    31   ar
    37    27    33   ar
    38    28    30   ar
    39    29    31   ar
    40    30    32   ar
    41    32    33   ar
    42    35    37    1
    43    37    39   ar
    44    37    38   ar
    45    38    41   ar
    46    38    45    1
    47    39    42   ar
    48    41    44   ar
    49    42    44   ar
@<TRIPOS>MOLECULE
../ET1/ET1_17-21_50CONFORMERS.pdb
 47 48 0 0 0
SMALL
GASTEIGER

@<TRIPOS>ATOM
      1  N         -4.2790   -0.1190   -2.0470 N.3    17  LEU17      -0.1231
      2  CA        -5.5940   -0.7250   -2.2120 C.3    17  LEU17       0.1693
      3  CB        -5.7410   -1.6660   -0.9970 C.3    17  LEU17       0.0284
      4  CG        -7.0800   -2.4770   -1.0040 C.3    17  LEU17       0.0019
      5  CD1       -7.0720   -3.6360   -1.8940 C.3    17  LEU17       0.0001
      6  CD2       -7.2270   -3.0350    0.3960 C.3    17  LEU17       0.0001
      7  C         -6.7480    0.3610   -2.1680 C.2    17  LEU17       0.2592
      8  O         -7.6420    0.4260   -3.0190 O.2    17  LEU17      -0.2718
      9  N         -6.6830    1.1920   -1.0710 N.am   18  ASP18      -0.1960
     10  CA        -7.5670    2.3620   -1.0900 C.3    18  ASP18       0.1840
     11  CB        -9.0140    2.0580   -0.6430 C.3    18  ASP18       0.1450
     12  CG        -9.9230    3.2540   -0.8450 C.2    18  ASP18       0.3671
     13  OD1      -10.4270    3.4060   -2.0000 O.co2  18  ASP18      -0.2456
     14  OD2      -10.1710    4.0160    0.1240 O.co2  18  ASP18      -0.2456
     15  C         -6.9940    3.5030   -0.2290 C.2    18  ASP18       0.2622
     16  O         -7.0620    4.6530   -0.6570 O.2    18  ASP18      -0.2715
     17  N         -6.3850    3.3110    0.8920 N.am   19  ILE19      -0.1963
     18  CA        -5.6590    4.3450    1.7380 C.3    19  ILE19       0.1727
     19  CB        -5.1660    3.8070    3.1390 C.3    19  ILE19       0.0290
     20  CG2       -4.2870    4.9150    3.8120 C.3    19  ILE19       0.0023
     21  CG1       -6.4310    3.4720    3.9910 C.3    19  ILE19       0.0022
     22  CD1       -6.0780    2.8870    5.3860 C.3    19  ILE19       0.0001
     23  C         -4.5450    4.9360    0.8000 C.2    19  ILE19       0.2616
     24  O         -4.3460    6.1370    0.7840 O.2    19  ILE19      -0.2715
     25  N         -3.9360    4.1940   -0.1550 N.am   20  ILE20      -0.1963
     26  CA        -3.2610    4.7730   -1.3150 C.3    20  ILE20       0.1727
     27  CB        -1.7990    4.4960   -1.1570 C.3    20  ILE20       0.0290
     28  CG2       -0.9550    4.5180   -2.4510 C.3    20  ILE20       0.0023
     29  CG1       -1.1240    5.3340   -0.0410 C.3    20  ILE20       0.0022
     30  CD1        0.3720    5.2830   -0.0060 C.3    20  ILE20       0.0001
     31  C         -3.8840    4.0520   -2.5330 C.2    20  ILE20       0.2617
     32  O         -4.2680    2.8800   -2.4260 O.2    20  ILE20      -0.2715
     33  N         -4.0660    4.7980   -3.6400 N.am   21  TRP21      -0.1941
     34  CA        -4.5180    4.2280   -4.9240 C.3    21  TRP21       0.1982
     35  CB        -5.9730    3.7280   -4.7280 C.3    21  TRP21       0.0394
     36  CG        -6.5950    3.0710   -5.9210 C.3    21  TRP21       0.0475
     37  CD1       -7.4580    3.7380   -6.7610 C.3    21  TRP21       0.1166
     38  NE1       -7.8220    2.9010   -7.7810 N.pl3  21  TRP21      -0.2376
     39  CE2       -7.4510    1.6160   -7.4090 C.ar   21  TRP21       0.0614
     40  CZ2       -7.8370    0.3550   -7.8470 C.ar   21  TRP21       0.0158
     41  CH2       -7.2100   -0.7860   -7.3500 C.ar   21  TRP21       0.0013
     42  CZ3       -6.2620   -0.6970   -6.3170 C.ar   21  TRP21      -0.0002
     43  CE3       -5.9790    0.5650   -5.8550 C.ar   21  TRP21      -0.0030
     44  CD2       -6.5680    1.7210   -6.3420 C.ar   21  TRP21      -0.0059
     45  C         -4.3900    5.2420   -6.0420 C.2    21  TRP21       0.3842
     46  O         -3.6970    4.8840   -7.0030 O.co2  21  TRP21      -0.2437
     47  OXT       -4.9340    6.3240   -5.8780 O.co2  21  TRP21      -0.2437
@<TRIPOS>BOND
     1    40    41   ar
     2    40    39   ar
     3    41    42   ar
     4    39    38    1
     5    39    44   ar
     6    42    43   ar
     7    38    37    1
     8    43    44   ar
     9    44    36    1
    10    37    36    1
    11    36    35    1
    12    47    45   ar
    13     5     4    1
    14    35    34    1
    15    45    34    1
    16    45    46   ar
    17    34    33    1
    18     8     7    2
    19     4     6    1
    20     4     3    1
    21     2     3    1
    22     2     1    1
    23     2     7    1
    24     7     9   am
    25    33    31   am
    26    32    31    2
    27    31    26    1
    28     9    10    1
    29    10    11    1
    30    10    15    1
    31    26    27    1
    32    26    25    1
    33    11    12    1
    34    13    12   ar
    35    27    29    1
    36    27    28    1
    37    29    30    1
    38    16    15    2
    39    15    17   am
    40    12    14   ar
    41    25    23   am
    42    17    18    1
    43    23    24    2
    44    23    18    1
    45    18    19    1
    46    19    21    1
    47    19    20    1
    48    21    22    1
