@<TRIPOS>MOLECULE
../ET1/ET1_17-21_50CONFORMERS_NOBACKBONE.pdb
 26 23 0 0 0
SMALL
GASTEIGER

@<TRIPOS>ATOM
      1  CB        -5.8570   -2.2150   -2.0310 C.3    17  LEU17       0.0000
      2  CG        -7.1220   -3.0210   -2.1490 C.3    17  LEU17       0.0000
      3  CD1       -7.7280   -3.0350   -3.5420 C.3    17  LEU17       0.0000
      4  CD2       -6.9000   -4.4680   -1.7520 C.3    17  LEU17       0.0000
      5  CB        -8.7560   -0.4860    1.0510 C.3    18  ASP18       0.1258
      6  CG       -10.1520   -0.2260    1.6910 C.2    18  ASP18       0.3654
      7  OD1      -10.3840   -0.3710    2.8940 O.co2  18  ASP18      -0.2456
      8  OD2      -11.1020    0.0550    0.8740 O.co2  18  ASP18      -0.2456
      9  CB        -5.5970    3.3000    3.4360 C.3    19  ILE19       0.0000
     10  CG2       -5.5760    4.4860    4.4030 C.3    19  ILE19       0.0000
     11  CG1       -5.6310    1.9200    4.0640 C.3    19  ILE19       0.0000
     12  CD1       -6.9900    1.6050    4.6860 C.3    19  ILE19       0.0000
     13  CB        -3.4320    5.7300   -0.4270 C.3    20  ILE20       0.0000
     14  CG2       -3.5820    6.5440    0.8320 C.3    20  ILE20       0.0000
     15  CG1       -2.2450    4.7640   -0.5120 C.3    20  ILE20       0.0000
     16  CD1       -0.8400    5.4520   -0.3980 C.3    20  ILE20       0.0000
     17  CB        -7.5990    5.4430   -4.2460 C.3    21  TRP21       0.0066
     18  CG        -8.3150    5.3080   -2.9810 C.3    21  TRP21       0.0452
     19  CD1       -8.5790    4.1850   -2.2770 C.3    21  TRP21       0.1165
     20  NE1       -9.1050    4.4920   -1.0680 N.pl3  21  TRP21      -0.2376
     21  CE2       -9.3070    5.8840   -0.9700 C.ar   21  TRP21       0.0614
     22  CZ2       -9.7230    6.6990    0.0780 C.ar   21  TRP21       0.0158
     23  CH2       -9.7040    8.1030    0.0120 C.ar   21  TRP21       0.0013
     24  CZ3       -9.2660    8.6890   -1.2230 C.ar   21  TRP21      -0.0002
     25  CE3       -8.7230    7.8520   -2.2560 C.ar   21  TRP21      -0.0030
     26  CD2       -8.7940    6.4290   -2.1750 C.ar   21  TRP21      -0.0059
@<TRIPOS>BOND
     1    22    23   ar
     2    22    21   ar
     3    23    24   ar
     4    21    20    1
     5    21    26   ar
     6    24    25   ar
     7    20    19    1
     8    25    26   ar
     9    26    18    1
    10    19    18    1
    11    18    17    1
    12     3     2    1
    13     2     4    1
    14     2     1    1
    15     5     6    1
    16     7     6   ar
    17    13    15    1
    18    13    14    1
    19    15    16    1
    20     6     8   ar
    21     9    11    1
    22     9    10    1
    23    11    12    1
@<TRIPOS>MOLECULE
123882
 66 71 0 0 0
SMALL
GASTEIGER

@<TRIPOS>ATOM
      1 S          -8.8507    7.9510    0.1333 S.2     3  UNK33      -0.0993
      2 O          -7.9345   -2.8857    2.1781 O.2     1  UNK11      -0.2755
      3 O          -2.8217    5.7955    2.5739 O.2     4  LEU44      -0.2738
      4 O         -10.0692    1.2975    0.6219 O.2     1  UNK11      -0.2737
      5 O          -6.1159    3.5080    2.0858 O.2     5  TRP55      -0.2738
      6 O          -7.9238    1.1032    3.7791 O.2     6  ASP66      -0.2738
      7 O          -5.5737    7.7169   -1.0850 O.2     3  UNK33      -0.2734
      8 O          -6.2679    3.5681   -1.6773 O.2     2  ASP22      -0.2737
      9 OD1        -3.3364    1.6410    5.3693 O.co2   6  ASP66      -0.5497
     10 OD2        -2.6796   -0.3192    4.3859 O.co2   6  ASP66      -0.5497
     11 OD1       -10.4599    1.3047   -3.4364 O.co2   2  ASP22      -0.5497
     12 OD2        -9.0401   -0.3887   -2.8265 O.co2   2  ASP22      -0.5497
     13 N          -7.5595   -3.7490    0.0999 N.am    1  UNK11      -0.2984
     14 N          -5.6803   -5.3752   -1.4301 N.pl3   1  UNK11      -0.3269
     15 N          -6.9971    0.1415    1.9102 N.am    1  UNK11      -0.3020
     16 N          -5.1113    5.8450    2.5831 N.am    5  TRP55      -0.3022
     17 N          -5.3604    5.7078   -0.0270 N.am    4  LEU44      -0.3022
     18 N          -5.4877    2.5828    4.0856 N.am    6  ASP66      -0.3021
     19 N          -7.9973    1.5751   -0.3262 N.am    2  ASP22      -0.3021
     20 N          -7.9768    4.8617   -0.9274 N.am    3  UNK33      -0.2984
     21 NE1        -6.0820    9.1951    5.2393 N.ar    5  TRP55      -0.3604
     22 C          -6.9438   -4.9370    0.6879 C.3     1  UNK11       0.0304
     23 C          -7.5538   -3.6924   -1.3696 C.3     1  UNK11       0.0304
     24 C          -6.4861   -5.9838   -0.3452 C.3     1  UNK11       0.0280
     25 C          -6.1584   -4.0493   -1.9115 C.3     1  UNK11       0.0280
     26 C          -7.8953   -2.7101    0.9601 C.2     1  UNK11       0.2179
     27 C          -8.1796   -1.3674    0.3241 C.3     1  UNK11       0.0510
     28 C          -8.2970   -0.2181    1.3303 C.3     1  UNK11       0.1076
     29 CA         -3.9660    5.9034    0.4134 C.3     4  LEU44       0.0997
     30 CB         -3.0965    4.8320   -0.2732 C.3     4  LEU44      -0.0236
     31 CA         -5.2909    5.0323    3.7900 C.3     5  TRP55       0.1034
     32 C          -4.3595   -5.7589   -1.6576 C.ar    1  UNK11       0.0298
     33 CG         -1.5737    4.8895   -0.0390 C.3     4  LEU44      -0.0446
     34 CB         -6.4167    5.5648    4.6833 C.3     5  TRP55       0.0013
     35 C          -3.8810    5.8247    1.9549 C.2     4  LEU44       0.2340
     36 CA         -5.4908    1.2286    3.5259 C.3     6  ASP66       0.1045
     37 C          -8.8799    0.9911    0.5625 C.2     1  UNK11       0.2344
     38 CG         -6.1660    6.9678    5.1668 C.ar    5  TRP55      -0.0201
     39 C          -5.6687    3.6429    3.2308 C.2     5  TRP55       0.2343
     40 C          -6.9285    0.8397    3.1052 C.2     6  ASP66       0.2343
     41 CA         -8.4248    2.4697   -1.3903 C.3     2  ASP22       0.1045
     42 CD2        -0.9729    6.2539   -0.3690 C.3     4  LEU44      -0.0626
     43 CD1        -0.8844    3.8019   -0.8706 C.3     4  LEU44      -0.0626
     44 C          -7.3878    6.1016   -1.4221 C.3     3  UNK33       0.1311
     45 C          -3.4366   -4.9213   -2.3115 C.ar    1  UNK11      -0.0407
     46 C          -3.8663   -7.0188   -1.2751 C.ar    1  UNK11      -0.0407
     47 CD2        -5.4689    7.3663    6.3532 C.ar    5  TRP55       0.0029
     48 C          -6.0420    6.6091   -0.8123 C.2     3  UNK33       0.2390
     49 CB         -4.9755    0.1925    4.5161 C.3     6  ASP66       0.0138
     50 CD1        -6.5442    8.1295    4.5193 C.ar    5  TRP55       0.0060
     51 CE2        -5.4335    8.7620    6.3715 C.ar    5  TRP55       0.0467
     52 C          -7.4567    3.6642   -1.3666 C.2     2  ASP22       0.2345
     53 CB         -8.2781    1.8307   -2.7656 C.3     2  ASP22       0.0138
     54 C          -2.0962   -5.2832   -2.5063 C.ar    1  UNK11      -0.0600
     55 C          -2.5271   -7.3921   -1.4636 C.ar    1  UNK11      -0.0600
     56 C          -8.4550    7.1705   -1.3440 C.ar    3  UNK33       0.0189
     57 CE3        -4.8471    6.6677    7.4081 C.ar    5  TRP55      -0.0523
     58 C          -1.6370   -6.5173   -2.0704 C.ar    1  UNK11      -0.0616
     59 CZ2        -4.8103    9.4939    7.3901 C.ar    5  TRP55      -0.0378
     60 CG         -3.5199    0.5305    4.7847 C.2     6  ASP66       0.0440
     61 CZ3        -4.2238    7.3837    8.4375 C.ar    5  TRP55      -0.0611
     62 C          -9.2662    7.6123   -2.3749 C.ar    3  UNK33      -0.0493
     63 CH2        -4.2066    8.7764    8.4265 C.ar    5  TRP55      -0.0598
     64 CG         -9.3767    0.8185   -3.0075 C.2     2  ASP22       0.0440
     65 C         -10.1858    8.6149   -1.9572 C.ar    3  UNK33      -0.0544
     66 C         -10.0568    8.9030   -0.6180 C.ar    3  UNK33      -0.0240
@<TRIPOS>BOND
     1     1    56   ar
     2     1    66   ar
     3     2    26    2
     4     3    35    2
     5     4    37    2
     6     5    39    2
     7     6    40    2
     8     7    48    2
     9     8    52    2
    10     9    60   ar
    11    10    60   ar
    12    11    64   ar
    13    12    64   ar
    14    13    22    1
    15    13    23    1
    16    14    24    1
    17    14    25    1
    18    14    32    1
    19    15    28    1
    20    15    40   am
    21    16    35   am
    22    16    31    1
    23    17    48   am
    24    17    29    1
    25    18    39   am
    26    18    36    1
    27    19    37   am
    28    19    41    1
    29    20    52   am
    30    20    44    1
    31    21    50   ar
    32    21    51   ar
    33    22    24    1
    34    23    25    1
    35    26    27    1
    36    26    13   am
    37    28    37    1
    38    28    27    1
    39    29    35    1
    40    29    30    1
    41    30    33    1
    42    31    39    1
    43    31    34    1
    44    32    45   ar
    45    32    46   ar
    46    33    43    1
    47    33    42    1
    48    34    38    1
    49    36    40    1
    50    36    49    1
    51    38    47   ar
    52    38    50   ar
    53    41    52    1
    54    41    53    1
    55    44    48    1
    56    44    56    1
    57    45    54   ar
    58    46    55   ar
    59    47    57   ar
    60    47    51   ar
    61    49    60    1
    62    51    59   ar
    63    53    64    1
    64    54    58   ar
    65    55    58   ar
    66    56    62   ar
    67    57    61   ar
    68    59    63   ar
    69    61    63   ar
    70    62    65   ar
    71    65    66   ar
@<TRIPOS>MOLECULE
../ET1/ET1_17-21_50CONFORMERS.pdb
 47 48 0 0 0
SMALL
GASTEIGER

@<TRIPOS>ATOM
      1  N         -4.6840   -0.0060   -2.1720 N.3    17  LEU17      -0.1231
      2  CA        -5.8870   -0.7440   -2.4980 C.3    17  LEU17       0.1693
      3  CB        -5.8570   -2.2150   -2.0310 C.3    17  LEU17       0.0284
      4  CG        -7.1220   -3.0210   -2.1490 C.3    17  LEU17       0.0019
      5  CD1       -7.7280   -3.0350   -3.5420 C.3    17  LEU17       0.0001
      6  CD2       -6.9000   -4.4680   -1.7520 C.3    17  LEU17       0.0001
      7  C         -7.0570    0.0540   -1.9340 C.2    17  LEU17       0.2592
      8  O         -7.8360    0.5790   -2.7440 O.2    17  LEU17      -0.2718
      9  N         -7.1000    0.2360   -0.5980 N.am   18  ASP18      -0.1960
     10  CA        -8.2720    0.6250    0.1430 C.3    18  ASP18       0.1840
     11  CB        -8.7560   -0.4860    1.0510 C.3    18  ASP18       0.1450
     12  CG       -10.1520   -0.2260    1.6910 C.2    18  ASP18       0.3671
     13  OD1      -10.3840   -0.3710    2.8940 O.co2  18  ASP18      -0.2456
     14  OD2      -11.1020    0.0550    0.8740 O.co2  18  ASP18      -0.2456
     15  C         -8.1150    1.9270    0.9350 C.2    18  ASP18       0.2622
     16  O         -9.0890    2.6460    1.0180 O.2    18  ASP18      -0.2715
     17  N         -6.9720    2.2590    1.5880 N.am   19  ILE19      -0.1963
     18  CA        -6.7050    3.5300    2.3160 C.3    19  ILE19       0.1727
     19  CB        -5.5970    3.3000    3.4360 C.3    19  ILE19       0.0290
     20  CG2       -5.5760    4.4860    4.4030 C.3    19  ILE19       0.0023
     21  CG1       -5.6310    1.9200    4.0640 C.3    19  ILE19       0.0022
     22  CD1       -6.9900    1.6050    4.6860 C.3    19  ILE19       0.0001
     23  C         -6.2780    4.6150    1.3600 C.2    19  ILE19       0.2616
     24  O         -6.6470    5.7730    1.4780 O.2    19  ILE19      -0.2715
     25  N         -5.3290    4.3190    0.4560 N.am   20  ILE20      -0.1963
     26  CA        -4.8630    5.1710   -0.6440 C.3    20  ILE20       0.1727
     27  CB        -3.4320    5.7300   -0.4270 C.3    20  ILE20       0.0290
     28  CG2       -3.5820    6.5440    0.8320 C.3    20  ILE20       0.0023
     29  CG1       -2.2450    4.7640   -0.5120 C.3    20  ILE20       0.0022
     30  CD1       -0.8400    5.4520   -0.3980 C.3    20  ILE20       0.0001
     31  C         -5.1990    4.4560   -1.9450 C.2    20  ILE20       0.2617
     32  O         -5.2380    3.2640   -2.0470 O.2    20  ILE20      -0.2715
     33  N         -5.4510    5.3440   -2.9640 N.am   21  TRP21      -0.1941
     34  CA        -6.1270    5.1130   -4.2700 C.3    21  TRP21       0.1982
     35  CB        -7.5990    5.4430   -4.2460 C.3    21  TRP21       0.0394
     36  CG        -8.3150    5.3080   -2.9810 C.3    21  TRP21       0.0475
     37  CD1       -8.5790    4.1850   -2.2770 C.3    21  TRP21       0.1166
     38  NE1       -9.1050    4.4920   -1.0680 N.pl3  21  TRP21      -0.2376
     39  CE2       -9.3070    5.8840   -0.9700 C.ar   21  TRP21       0.0614
     40  CZ2       -9.7230    6.6990    0.0780 C.ar   21  TRP21       0.0158
     41  CH2       -9.7040    8.1030    0.0120 C.ar   21  TRP21       0.0013
     42  CZ3       -9.2660    8.6890   -1.2230 C.ar   21  TRP21      -0.0002
     43  CE3       -8.7230    7.8520   -2.2560 C.ar   21  TRP21      -0.0030
     44  CD2       -8.7940    6.4290   -2.1750 C.ar   21  TRP21      -0.0059
     45  C         -5.4490    5.7100   -5.5300 C.2    21  TRP21       0.3842
     46  O         -4.6150    6.6320   -5.3360 O.co2  21  TRP21      -0.2437
     47  OXT       -5.6400    5.2380   -6.6790 O.co2  21  TRP21      -0.2437
@<TRIPOS>BOND
     1    40    41   ar
     2    40    39   ar
     3    41    42   ar
     4    39    38    1
     5    39    44   ar
     6    42    43   ar
     7    38    37    1
     8    43    44   ar
     9    44    36    1
    10    37    36    1
    11    36    35    1
    12    47    45   ar
    13     5     4    1
    14    35    34    1
    15    45    34    1
    16    45    46   ar
    17    34    33    1
    18     8     7    2
    19     4     6    1
    20     4     3    1
    21     2     3    1
    22     2     1    1
    23     2     7    1
    24     7     9   am
    25    33    31   am
    26    32    31    2
    27    31    26    1
    28     9    10    1
    29    10    11    1
    30    10    15    1
    31    26    27    1
    32    26    25    1
    33    11    12    1
    34    13    12   ar
    35    27    29    1
    36    27    28    1
    37    29    30    1
    38    16    15    2
    39    15    17   am
    40    12    14   ar
    41    25    23   am
    42    17    18    1
    43    23    24    2
    44    23    18    1
    45    18    19    1
    46    19    21    1
    47    19    20    1
    48    21    22    1
