@<TRIPOS>MOLECULE
../ET1/ET1_17-21_50CONFORMERS_NOBACKBONE.pdb
 26 23 0 0 0
SMALL
GASTEIGER

@<TRIPOS>ATOM
      1  CB        -6.3700   -1.7240   -1.0650 C.3    17  LEU17       0.0000
      2  CG        -7.6800   -2.5150   -1.4070 C.3    17  LEU17       0.0000
      3  CD1       -7.7720   -3.0040   -2.8110 C.3    17  LEU17       0.0000
      4  CD2       -7.9130   -3.7120   -0.4330 C.3    17  LEU17       0.0000
      5  CB        -9.3250    1.8040    0.0230 C.3    18  ASP18       0.1258
      6  CG       -10.4490    2.8760    0.1640 C.2    18  ASP18       0.3654
      7  OD1      -10.3660    3.7280    1.0360 O.co2  18  ASP18      -0.2456
      8  OD2      -11.3160    2.9200   -0.7650 O.co2  18  ASP18      -0.2456
      9  CB        -5.5190    4.6730    2.8600 C.3    19  ILE19       0.0000
     10  CG2       -4.2740    3.6900    2.8780 C.3    19  ILE19       0.0000
     11  CG1       -5.3070    6.0690    3.5040 C.3    19  ILE19       0.0000
     12  CD1       -5.2930    6.0250    5.0400 C.3    19  ILE19       0.0000
     13  CB        -1.9130    5.2240   -1.1980 C.3    20  ILE20       0.0000
     14  CG2       -1.5820    6.4010   -0.2490 C.3    20  ILE20       0.0000
     15  CG1       -1.5350    3.9480   -0.3450 C.3    20  ILE20       0.0000
     16  CD1       -0.0560    3.7320   -0.0390 C.3    20  ILE20       0.0000
     17  CB        -5.1730    4.4740   -5.6410 C.3    21  TRP21       0.0066
     18  CG        -5.4760    3.6370   -6.8280 C.3    21  TRP21       0.0452
     19  CD1       -5.3840    4.0190   -8.1420 C.3    21  TRP21       0.1165
     20  NE1       -5.8470    2.9720   -8.9090 N.pl3  21  TRP21      -0.2376
     21  CE2       -5.9380    1.8220   -8.2000 C.ar   21  TRP21       0.0614
     22  CZ2       -5.9550    0.4600   -8.6010 C.ar   21  TRP21       0.0158
     23  CH2       -6.0020   -0.5440   -7.5800 C.ar   21  TRP21       0.0013
     24  CZ3       -6.0200   -0.1340   -6.2320 C.ar   21  TRP21      -0.0002
     25  CE3       -5.9020    1.1770   -5.8910 C.ar   21  TRP21      -0.0030
     26  CD2       -5.8730    2.1930   -6.8510 C.ar   21  TRP21      -0.0059
@<TRIPOS>BOND
     1    22    23   ar
     2    22    21   ar
     3    23    24   ar
     4    21    20    1
     5    21    26   ar
     6    24    25   ar
     7    20    19    1
     8    25    26   ar
     9    26    18    1
    10    19    18    1
    11    18    17    1
    12     3     2    1
    13     2     4    1
    14     2     1    1
    15     5     6    1
    16     7     6   ar
    17    13    15    1
    18    13    14    1
    19    15    16    1
    20     6     8   ar
    21     9    11    1
    22     9    10    1
    23    11    12    1
@<TRIPOS>MOLECULE
2-[[2-[2-butyl-4-[(Z)-2-carboxy-3-(6-methoxy-1,3-benzodioxol-5-yl)prop-1-enyl]pyrazol-3-yl]-5-methoxyphenoxy]methyl]benzoic acid
 45 49 0 0 0
SMALL
GASTEIGER

@<TRIPOS>ATOM
      1 O          -7.1969    6.4743   -3.1411 O.3     1  LIG11      -0.4866
      2 O          -5.4677   -1.5516   -8.4873 O.3     1  LIG11      -0.4526
      3 O          -6.8060   -2.0715   -6.5462 O.3     1  LIG11      -0.4525
      4 O          -6.3115    2.3530   -4.7788 O.3     1  LIG11      -0.4947
      5 O          -6.2471   11.0595   -2.1227 O.3     1  LIG11      -0.4950
      6 O          -6.6097    4.1531   -8.9193 O.co2   1  LIG11      -0.5449
      7 O          -6.5928    6.2223   -7.9735 O.co2   1  LIG11      -0.5449
      8 O         -10.0540    5.8624   -0.7831 O.co2   1  LIG11      -0.5446
      9 O         -10.2038    3.6158   -0.9334 O.co2   1  LIG11      -0.5446
     10 N          -3.4741    5.2809   -2.6406 N.ar    1  LIG11      -0.2630
     11 N          -3.1298    4.0387   -3.0241 N.ar    1  LIG11      -0.1785
     12 C          -4.3711    5.9057   -3.5007 C.ar    1  LIG11       0.0795
     13 C          -2.8638    5.8016   -1.4241 C.3     1  LIG11       0.0422
     14 C          -1.4901    5.1904   -1.0778 C.3     1  LIG11      -0.0336
     15 C          -4.5570    4.9929   -4.5401 C.ar    1  LIG11       0.0207
     16 C          -4.9235    7.2542   -3.2571 C.ar    1  LIG11       0.0425
     17 C          -1.5998    3.9040   -0.2527 C.3     1  LIG11      -0.0542
     18 C          -3.8286    3.8543   -4.1391 C.ar    1  LIG11       0.0571
     19 C          -5.3485    5.1962   -5.7236 C.2     1  LIG11      -0.0459
     20 C          -4.7182    3.1569   -7.1606 C.3     1  LIG11       0.0029
     21 C          -6.2895    7.5079   -3.0004 C.ar    1  LIG11       0.1336
     22 C          -5.4612    4.4303   -6.8369 C.2     1  LIG11      -0.0200
     23 C          -5.4106    1.8120   -6.9473 C.ar    1  LIG11       0.0023
     24 C          -4.0216    8.3393   -3.2340 C.ar    1  LIG11      -0.0456
     25 C          -0.2757    3.1573   -0.1941 C.3     1  LIG11      -0.0652
     26 C          -6.6733    8.8036   -2.6027 C.ar    1  LIG11       0.0224
     27 C          -6.1860    1.4699   -5.8123 C.ar    1  LIG11       0.1273
     28 C          -5.1609    0.8005   -7.9019 C.ar    1  LIG11      -0.0092
     29 C          -4.4256    9.6218   -2.8562 C.ar    1  LIG11      -0.0191
     30 C          -5.6712   -0.4654   -7.6902 C.ar    1  LIG11       0.1667
     31 C          -5.7490    9.8435   -2.5046 C.ar    1  LIG11       0.1236
     32 C          -6.4294   -0.7646   -6.5859 C.ar    1  LIG11       0.1697
     33 C          -6.7073    0.1795   -5.6299 C.ar    1  LIG11       0.0258
     34 C          -6.3271    4.9883   -8.0056 C.2     1  LIG11       0.0680
     35 C          -8.5799    6.8691   -3.1771 C.3     1  LIG11       0.1153
     36 C          -6.1701   -2.5625   -7.7399 C.3     1  LIG11       0.2332
     37 C          -9.5041    5.8107   -3.7456 C.ar    1  LIG11      -0.0016
     38 C         -10.2115    4.8718   -2.9566 C.ar    1  LIG11       0.0037
     39 C          -9.6747    5.7899   -5.1489 C.ar    1  LIG11      -0.0547
     40 C          -7.6644    2.7534   -4.5636 C.3     1  LIG11       0.0788
     41 C         -11.0742    3.9626   -3.6106 C.ar    1  LIG11      -0.0525
     42 C         -10.5514    4.8957   -5.7650 C.ar    1  LIG11      -0.0614
     43 C          -5.4353   11.7387   -1.1720 C.3     1  LIG11       0.0788
     44 C         -11.2548    3.9817   -4.9953 C.ar    1  LIG11      -0.0611
     45 C         -10.1211    4.7788   -1.4454 C.2     1  LIG11       0.0720
@<TRIPOS>BOND
     1     1    35    1
     2     1    21    1
     3     2    36    1
     4     2    30    1
     5     3    32    1
     6     3    36    1
     7     4    27    1
     8     4    40    1
     9     5    31    1
    10     5    43    1
    11     6    34   ar
    12     7    34   ar
    13     8    45   ar
    14     9    45   ar
    15    10    11   ar
    16    10    12   ar
    17    10    13    1
    18    11    18   ar
    19    12    15   ar
    20    13    14    1
    21    14    17    1
    22    15    18   ar
    23    15    19    1
    24    16    24   ar
    25    16    21   ar
    26    16    12    1
    27    17    25    1
    28    19    22    2
    29    20    22    1
    30    20    23    1
    31    21    26   ar
    32    22    34    1
    33    23    28   ar
    34    23    27   ar
    35    24    29   ar
    36    26    31   ar
    37    27    33   ar
    38    28    30   ar
    39    29    31   ar
    40    30    32   ar
    41    32    33   ar
    42    35    37    1
    43    37    39   ar
    44    37    38   ar
    45    38    41   ar
    46    38    45    1
    47    39    42   ar
    48    41    44   ar
    49    42    44   ar
@<TRIPOS>MOLECULE
../ET1/ET1_17-21_50CONFORMERS.pdb
 47 48 0 0 0
SMALL
GASTEIGER

@<TRIPOS>ATOM
      1  N         -4.6780   -0.0850   -1.5830 N.3    17  LEU17      -0.1231
      2  CA        -5.9780   -0.5970   -2.0100 C.3    17  LEU17       0.1693
      3  CB        -6.3700   -1.7240   -1.0650 C.3    17  LEU17       0.0284
      4  CG        -7.6800   -2.5150   -1.4070 C.3    17  LEU17       0.0019
      5  CD1       -7.7720   -3.0040   -2.8110 C.3    17  LEU17       0.0001
      6  CD2       -7.9130   -3.7120   -0.4330 C.3    17  LEU17       0.0001
      7  C         -6.9780    0.5450   -2.0500 C.2    17  LEU17       0.2592
      8  O         -7.6980    0.7820   -3.0610 O.2    17  LEU17      -0.2718
      9  N         -7.1080    1.2870   -0.9420 N.am   18  ASP18      -0.1960
     10  CA        -8.1380    2.3590   -0.8440 C.3    18  ASP18       0.1840
     11  CB        -9.3250    1.8040    0.0230 C.3    18  ASP18       0.1450
     12  CG       -10.4490    2.8760    0.1640 C.2    18  ASP18       0.3671
     13  OD1      -10.3660    3.7280    1.0360 O.co2  18  ASP18      -0.2456
     14  OD2      -11.3160    2.9200   -0.7650 O.co2  18  ASP18      -0.2456
     15  C         -7.5340    3.6670   -0.2750 C.2    18  ASP18       0.2622
     16  O         -7.8930    4.7610   -0.7510 O.2    18  ASP18      -0.2715
     17  N         -6.6260    3.5880    0.7760 N.am   19  ILE19      -0.1963
     18  CA        -6.0950    4.8210    1.4140 C.3    19  ILE19       0.1727
     19  CB        -5.5190    4.6730    2.8600 C.3    19  ILE19       0.0290
     20  CG2       -4.2740    3.6900    2.8780 C.3    19  ILE19       0.0023
     21  CG1       -5.3070    6.0690    3.5040 C.3    19  ILE19       0.0022
     22  CD1       -5.2930    6.0250    5.0400 C.3    19  ILE19       0.0001
     23  C         -5.0210    5.5530    0.4810 C.2    19  ILE19       0.2616
     24  O         -4.9020    6.7360    0.5180 O.2    19  ILE19      -0.2715
     25  N         -4.2770    4.7900   -0.3470 N.am   20  ILE20      -0.1963
     26  CA        -3.4430    5.2460   -1.5010 C.3    20  ILE20       0.1727
     27  CB        -1.9130    5.2240   -1.1980 C.3    20  ILE20       0.0290
     28  CG2       -1.5820    6.4010   -0.2490 C.3    20  ILE20       0.0023
     29  CG1       -1.5350    3.9480   -0.3450 C.3    20  ILE20       0.0022
     30  CD1       -0.0560    3.7320   -0.0390 C.3    20  ILE20       0.0001
     31  C         -3.6450    4.4150   -2.7420 C.2    20  ILE20       0.2617
     32  O         -4.0330    3.2650   -2.5870 O.2    20  ILE20      -0.2715
     33  N         -3.5090    4.9890   -3.9190 N.am   21  TRP21      -0.1941
     34  CA        -3.7490    4.4630   -5.2570 C.3    21  TRP21       0.1982
     35  CB        -5.1730    4.4740   -5.6410 C.3    21  TRP21       0.0394
     36  CG        -5.4760    3.6370   -6.8280 C.3    21  TRP21       0.0475
     37  CD1       -5.3840    4.0190   -8.1420 C.3    21  TRP21       0.1166
     38  NE1       -5.8470    2.9720   -8.9090 N.pl3  21  TRP21      -0.2376
     39  CE2       -5.9380    1.8220   -8.2000 C.ar   21  TRP21       0.0614
     40  CZ2       -5.9550    0.4600   -8.6010 C.ar   21  TRP21       0.0158
     41  CH2       -6.0020   -0.5440   -7.5800 C.ar   21  TRP21       0.0013
     42  CZ3       -6.0200   -0.1340   -6.2320 C.ar   21  TRP21      -0.0002
     43  CE3       -5.9020    1.1770   -5.8910 C.ar   21  TRP21      -0.0030
     44  CD2       -5.8730    2.1930   -6.8510 C.ar   21  TRP21      -0.0059
     45  C         -2.9100    5.2210   -6.2490 C.2    21  TRP21       0.3842
     46  O         -2.9870    6.4280   -6.3610 O.co2  21  TRP21      -0.2437
     47  OXT       -1.9860    4.5890   -6.8430 O.co2  21  TRP21      -0.2437
@<TRIPOS>BOND
     1    40    41   ar
     2    40    39   ar
     3    41    42   ar
     4    39    38    1
     5    39    44   ar
     6    42    43   ar
     7    38    37    1
     8    43    44   ar
     9    44    36    1
    10    37    36    1
    11    36    35    1
    12    47    45   ar
    13     5     4    1
    14    35    34    1
    15    45    34    1
    16    45    46   ar
    17    34    33    1
    18     8     7    2
    19     4     6    1
    20     4     3    1
    21     2     3    1
    22     2     1    1
    23     2     7    1
    24     7     9   am
    25    33    31   am
    26    32    31    2
    27    31    26    1
    28     9    10    1
    29    10    11    1
    30    10    15    1
    31    26    27    1
    32    26    25    1
    33    11    12    1
    34    13    12   ar
    35    27    29    1
    36    27    28    1
    37    29    30    1
    38    16    15    2
    39    15    17   am
    40    12    14   ar
    41    25    23   am
    42    17    18    1
    43    23    24    2
    44    23    18    1
    45    18    19    1
    46    19    21    1
    47    19    20    1
    48    21    22    1
