@<TRIPOS>MOLECULE
../ET1/ET1_17-21_50CONFORMERS_NOBACKBONE.pdb
 26 23 0 0 0
SMALL
GASTEIGER

@<TRIPOS>ATOM
      1  CB        -6.2920   -2.1760   -1.0600 C.3    17  LEU17       0.0000
      2  CG        -7.3810   -3.1070   -1.5860 C.3    17  LEU17       0.0000
      3  CD1       -6.9450   -3.7990   -2.8500 C.3    17  LEU17       0.0000
      4  CD2       -7.7240   -4.1790   -0.5430 C.3    17  LEU17       0.0000
      5  CB        -9.4910    0.8860    0.2600 C.3    18  ASP18       0.1258
      6  CG       -10.8750    1.6030    0.4550 C.2    18  ASP18       0.3654
      7  OD1      -11.4860    2.1330   -0.5300 O.co2  18  ASP18      -0.2456
      8  OD2      -11.4410    1.7200    1.5770 O.co2  18  ASP18      -0.2456
      9  CB        -5.6210    3.8030    2.9640 C.3    19  ILE19       0.0000
     10  CG2       -5.2590    5.0340    3.8530 C.3    19  ILE19       0.0000
     11  CG1       -6.2890    2.7240    3.8510 C.3    19  ILE19       0.0000
     12  CD1       -7.4570    3.2800    4.6780 C.3    19  ILE19       0.0000
     13  CB        -3.0360    5.7160   -0.8090 C.3    20  ILE20       0.0000
     14  CG2       -2.9090    6.9430    0.1270 C.3    20  ILE20       0.0000
     15  CG1       -2.3000    4.4780   -0.2360 C.3    20  ILE20       0.0000
     16  CD1       -0.7510    4.6320   -0.0640 C.3    20  ILE20       0.0000
     17  CB        -6.2060    4.6960   -5.0710 C.3    21  TRP21       0.0066
     18  CG        -7.5330    5.1540   -4.5320 C.3    21  TRP21       0.0452
     19  CD1       -8.0300    4.7650   -3.3860 C.3    21  TRP21       0.1165
     20  NE1       -9.3510    5.1570   -3.2800 N.pl3  21  TRP21      -0.2376
     21  CE2       -9.6980    5.9810   -4.3630 C.ar   21  TRP21       0.0614
     22  CZ2      -10.8900    6.6110   -4.7560 C.ar   21  TRP21       0.0158
     23  CH2      -10.9230    7.4890   -5.8630 C.ar   21  TRP21       0.0013
     24  CZ3       -9.7770    7.6770   -6.6190 C.ar   21  TRP21      -0.0002
     25  CE3       -8.6250    6.9020   -6.2810 C.ar   21  TRP21      -0.0030
     26  CD2       -8.5240    6.0800   -5.1280 C.ar   21  TRP21      -0.0059
@<TRIPOS>BOND
     1    22    23   ar
     2    22    21   ar
     3    23    24   ar
     4    21    20    1
     5    21    26   ar
     6    24    25   ar
     7    20    19    1
     8    25    26   ar
     9    26    18    1
    10    19    18    1
    11    18    17    1
    12     3     2    1
    13     2     4    1
    14     2     1    1
    15     5     6    1
    16     7     6   ar
    17    13    15    1
    18    13    14    1
    19    15    16    1
    20     6     8   ar
    21     9    11    1
    22     9    10    1
    23    11    12    1
@<TRIPOS>MOLECULE
9871593
 37 40 0 0 0
SMALL
GASTEIGER

@<TRIPOS>ATOM
      1 O          -5.2786    1.4199    0.1659 O.3     1  LIG11      -0.4526
      2 O          -3.8280   -0.0288   -1.1110 O.3     1  LIG11      -0.4526
      3 O          -6.6094   -0.6763   -6.9042 O.3     1  LIG11      -0.4913
      4 O          -7.7318   -0.9598   -2.1460 O.3     1  LIG11      -0.4913
      5 O          -6.7716   -2.2444   -4.6007 O.3     1  LIG11      -0.4885
      6 O          -6.5314    5.4433   -6.3814 O.2     1  LIG11      -0.2870
      7 O          -3.9062    5.6096   -3.8428 O.co2   1  LIG11      -0.5446
      8 O          -5.8356    6.7451   -3.3592 O.co2   1  LIG11      -0.5446
      9 O         -12.1757    8.1996   -6.3052 O.3     1  LIG11      -0.4951
     10 C          -8.2086    3.2739   -4.3910 C.3     1  LIG11       0.0021
     11 C          -7.1548    4.3505   -4.3878 C.2     1  LIG11       0.0135
     12 C          -7.8040    1.8223   -4.4584 C.ar    1  LIG11      -0.0358
     13 C          -5.9829    4.4107   -3.7122 C.2     1  LIG11       0.0117
     14 C          -5.3719    3.2869   -2.9945 C.ar    1  LIG11      -0.0121
     15 C          -7.3280    5.4104   -5.4392 C.2     1  LIG11       0.1901
     16 C          -7.9165    0.9992   -3.3309 C.ar    1  LIG11      -0.0126
     17 C          -7.3541    1.2622   -5.6551 C.ar    1  LIG11      -0.0126
     18 C          -5.6546    3.0064   -1.6531 C.ar    1  LIG11      -0.0084
     19 C          -5.0879    1.8712   -1.1057 C.ar    1  LIG11       0.1668
     20 C          -4.5008    2.4392   -3.7231 C.ar    1  LIG11      -0.0503
     21 C          -4.2597    1.0415   -1.8317 C.ar    1  LIG11       0.1663
     22 C          -7.0494   -0.1036   -5.7334 C.ar    1  LIG11       0.1654
     23 C          -7.5650   -0.3571   -3.3668 C.ar    1  LIG11       0.1654
     24 C          -8.5557    6.2565   -5.5223 C.ar    1  LIG11       0.0222
     25 C          -7.1407   -0.9208   -4.5824 C.ar    1  LIG11       0.2035
     26 C          -3.9370    1.3028   -3.1427 C.ar    1  LIG11      -0.0156
     27 C          -5.1498    5.7186   -3.6576 C.2     1  LIG11       0.0726
     28 C          -4.5135    0.1993    0.1340 C.3     1  LIG11       0.2332
     29 C          -9.6447    6.1624   -4.6535 C.ar    1  LIG11      -0.0475
     30 C          -8.6447    7.1344   -6.6150 C.ar    1  LIG11      -0.0475
     31 C         -10.8361    6.8425   -4.9465 C.ar    1  LIG11      -0.0193
     32 C          -9.8242    7.8298   -6.8930 C.ar    1  LIG11      -0.0193
     33 C         -10.9429    7.6462   -6.0855 C.ar    1  LIG11       0.1201
     34 C          -7.1969   -0.1435   -8.0886 C.3     1  LIG11       0.0790
     35 C          -7.3027   -2.2993   -1.9788 C.3     1  LIG11       0.0790
     36 C          -7.3870   -3.0171   -5.6255 C.3     1  LIG11       0.0791
     37 C         -12.4011    8.7070   -7.6171 C.3     1  LIG11       0.0788
@<TRIPOS>BOND
     1     1    19    1
     2     1    28    1
     3     2    28    1
     4     2    21    1
     5     3    22    1
     6     3    34    1
     7     4    23    1
     8     4    35    1
     9     5    25    1
    10     5    36    1
    11     6    15    2
    12     7    27   ar
    13     8    27   ar
    14     9    33    1
    15     9    37    1
    16    10    11    1
    17    10    12    1
    18    11    13    2
    19    11    15    1
    20    12    16   ar
    21    12    17   ar
    22    13    14    1
    23    13    27    1
    24    14    20   ar
    25    14    18   ar
    26    15    24    1
    27    16    23   ar
    28    17    22   ar
    29    18    19   ar
    30    19    21   ar
    31    20    26   ar
    32    21    26   ar
    33    22    25   ar
    34    23    25   ar
    35    24    29   ar
    36    24    30   ar
    37    29    31   ar
    38    30    32   ar
    39    31    33   ar
    40    32    33   ar
@<TRIPOS>MOLECULE
../ET1/ET1_17-21_50CONFORMERS.pdb
 47 48 0 0 0
SMALL
GASTEIGER

@<TRIPOS>ATOM
      1  N         -4.8630   -0.1330   -1.6160 N.3    17  LEU17      -0.1231
      2  CA        -6.0890   -0.9020   -1.9640 C.3    17  LEU17       0.1693
      3  CB        -6.2920   -2.1760   -1.0600 C.3    17  LEU17       0.0284
      4  CG        -7.3810   -3.1070   -1.5860 C.3    17  LEU17       0.0019
      5  CD1       -6.9450   -3.7990   -2.8500 C.3    17  LEU17       0.0001
      6  CD2       -7.7240   -4.1790   -0.5430 C.3    17  LEU17       0.0001
      7  C         -7.2690    0.0540   -2.0040 C.2    17  LEU17       0.2592
      8  O         -8.0910    0.0700   -2.9040 O.2    17  LEU17      -0.2718
      9  N         -7.3890    0.8570   -0.9180 N.am   18  ASP18      -0.1960
     10  CA        -8.5480    1.7130   -0.5520 C.3    18  ASP18       0.1840
     11  CB        -9.4910    0.8860    0.2600 C.3    18  ASP18       0.1450
     12  CG       -10.8750    1.6030    0.4550 C.2    18  ASP18       0.3671
     13  OD1      -11.4860    2.1330   -0.5300 O.co2  18  ASP18      -0.2456
     14  OD2      -11.4410    1.7200    1.5770 O.co2  18  ASP18      -0.2456
     15  C         -8.1680    3.0400    0.1660 C.2    18  ASP18       0.2622
     16  O         -8.7860    4.0760   -0.0800 O.2    18  ASP18      -0.2715
     17  N         -7.0630    2.9750    0.9960 N.am   19  ILE19      -0.1963
     18  CA        -6.6490    4.1630    1.8650 C.3    19  ILE19       0.1727
     19  CB        -5.6210    3.8030    2.9640 C.3    19  ILE19       0.0290
     20  CG2       -5.2590    5.0340    3.8530 C.3    19  ILE19       0.0023
     21  CG1       -6.2890    2.7240    3.8510 C.3    19  ILE19       0.0022
     22  CD1       -7.4570    3.2800    4.6780 C.3    19  ILE19       0.0001
     23  C         -6.0450    5.2550    0.9960 C.2    19  ILE19       0.2616
     24  O         -6.2860    6.5130    1.2110 O.2    19  ILE19      -0.2715
     25  N         -5.2500    4.8220    0.0030 N.am   20  ILE20      -0.1963
     26  CA        -4.5240    5.4980   -1.0530 C.3    20  ILE20       0.1727
     27  CB        -3.0360    5.7160   -0.8090 C.3    20  ILE20       0.0290
     28  CG2       -2.9090    6.9430    0.1270 C.3    20  ILE20       0.0023
     29  CG1       -2.3000    4.4780   -0.2360 C.3    20  ILE20       0.0022
     30  CD1       -0.7510    4.6320   -0.0640 C.3    20  ILE20       0.0001
     31  C         -4.7230    4.8530   -2.3940 C.2    20  ILE20       0.2617
     32  O         -4.8010    3.6250   -2.5370 O.2    20  ILE20      -0.2715
     33  N         -4.8210    5.7560   -3.3720 N.am   21  TRP21      -0.1941
     34  CA        -4.9310    5.4940   -4.7570 C.3    21  TRP21       0.1982
     35  CB        -6.2060    4.6960   -5.0710 C.3    21  TRP21       0.0394
     36  CG        -7.5330    5.1540   -4.5320 C.3    21  TRP21       0.0475
     37  CD1       -8.0300    4.7650   -3.3860 C.3    21  TRP21       0.1166
     38  NE1       -9.3510    5.1570   -3.2800 N.pl3  21  TRP21      -0.2376
     39  CE2       -9.6980    5.9810   -4.3630 C.ar   21  TRP21       0.0614
     40  CZ2      -10.8900    6.6110   -4.7560 C.ar   21  TRP21       0.0158
     41  CH2      -10.9230    7.4890   -5.8630 C.ar   21  TRP21       0.0013
     42  CZ3       -9.7770    7.6770   -6.6190 C.ar   21  TRP21      -0.0002
     43  CE3       -8.6250    6.9020   -6.2810 C.ar   21  TRP21      -0.0030
     44  CD2       -8.5240    6.0800   -5.1280 C.ar   21  TRP21      -0.0059
     45  C         -4.8680    6.8010   -5.4940 C.2    21  TRP21       0.3842
     46  O         -5.2190    7.8130   -4.8570 O.co2  21  TRP21      -0.2437
     47  OXT       -4.4930    6.7370   -6.6880 O.co2  21  TRP21      -0.2437
@<TRIPOS>BOND
     1    40    41   ar
     2    40    39   ar
     3    41    42   ar
     4    39    38    1
     5    39    44   ar
     6    42    43   ar
     7    38    37    1
     8    43    44   ar
     9    44    36    1
    10    37    36    1
    11    36    35    1
    12    47    45   ar
    13     5     4    1
    14    35    34    1
    15    45    34    1
    16    45    46   ar
    17    34    33    1
    18     8     7    2
    19     4     6    1
    20     4     3    1
    21     2     3    1
    22     2     1    1
    23     2     7    1
    24     7     9   am
    25    33    31   am
    26    32    31    2
    27    31    26    1
    28     9    10    1
    29    10    11    1
    30    10    15    1
    31    26    27    1
    32    26    25    1
    33    11    12    1
    34    13    12   ar
    35    27    29    1
    36    27    28    1
    37    29    30    1
    38    16    15    2
    39    15    17   am
    40    12    14   ar
    41    25    23   am
    42    17    18    1
    43    23    24    2
    44    23    18    1
    45    18    19    1
    46    19    21    1
    47    19    20    1
    48    21    22    1
