@<TRIPOS>MOLECULE
../ET1/ET1_17-21_50CONFORMERS_NOBACKBONE.pdb
 26 23 0 0 0
SMALL
GASTEIGER

@<TRIPOS>ATOM
      1  CB        -6.2200   -2.0150   -2.2660 C.3    17  LEU17       0.0000
      2  CG        -7.4870   -2.7880   -2.7410 C.3    17  LEU17       0.0000
      3  CD1       -7.7560   -2.6580   -4.2950 C.3    17  LEU17       0.0000
      4  CD2       -7.2700   -4.2410   -2.4020 C.3    17  LEU17       0.0000
      5  CB        -9.2830    0.1420    0.9540 C.3    18  ASP18       0.1258
      6  CG       -10.4660    0.8060    1.7740 C.2    18  ASP18       0.3654
      7  OD1      -11.2950    1.5080    1.1310 O.co2  18  ASP18      -0.2456
      8  OD2      -10.5110    0.6630    3.0340 O.co2  18  ASP18      -0.2456
      9  CB        -5.1350    2.6390    3.5580 C.3    19  ILE19       0.0000
     10  CG2       -4.5740    3.8120    4.3410 C.3    19  ILE19       0.0000
     11  CG1       -5.7500    1.6370    4.5180 C.3    19  ILE19       0.0000
     12  CD1       -4.7460    0.7600    5.2450 C.3    19  ILE19       0.0000
     13  CB        -2.6220    4.7690   -0.2970 C.3    20  ILE20       0.0000
     14  CG2       -2.2290    5.8150   -1.3590 C.3    20  ILE20       0.0000
     15  CG1       -2.1680    5.1420    1.1400 C.3    20  ILE20       0.0000
     16  CD1       -0.6600    5.3030    1.3390 C.3    20  ILE20       0.0000
     17  CB        -7.1750    4.4700   -3.9070 C.3    21  TRP21       0.0066
     18  CG        -7.5360    3.9570   -5.2690 C.3    21  TRP21       0.0452
     19  CD1       -8.1900    4.7020   -6.2020 C.3    21  TRP21       0.1165
     20  NE1       -8.4500    3.9790   -7.3380 N.pl3  21  TRP21      -0.2376
     21  CE2       -7.7020    2.8280   -7.2740 C.ar   21  TRP21       0.0614
     22  CZ2       -7.5760    1.8010   -8.2060 C.ar   21  TRP21       0.0158
     23  CH2       -6.9090    0.6250   -7.7970 C.ar   21  TRP21       0.0013
     24  CZ3       -6.5580    0.4430   -6.4490 C.ar   21  TRP21      -0.0002
     25  CE3       -6.6670    1.4790   -5.5350 C.ar   21  TRP21      -0.0030
     26  CD2       -7.2610    2.6790   -5.9050 C.ar   21  TRP21      -0.0059
@<TRIPOS>BOND
     1    22    23   ar
     2    22    21   ar
     3    23    24   ar
     4    21    20    1
     5    21    26   ar
     6    24    25   ar
     7    20    19    1
     8    25    26   ar
     9    26    18    1
    10    19    18    1
    11    18    17    1
    12     3     2    1
    13     2     4    1
    14     2     1    1
    15     5     6    1
    16     7     6   ar
    17    13    15    1
    18    13    14    1
    19    15    16    1
    20     6     8   ar
    21     9    11    1
    22     9    10    1
    23    11    12    1
@<TRIPOS>MOLECULE
9939443
 43 47 0 0 0
SMALL
GASTEIGER

@<TRIPOS>ATOM
      1 S          -1.2576    1.6382   -5.6951 S.O2    1  LIG11       0.0908
      2 O          -4.4574    0.2009   -5.9720 O.3     1  LIG11      -0.4435
      3 O          -2.1354    2.2314   -6.7059 O.2     1  LIG11      -0.1484
      4 O           0.1569    1.4990   -5.9784 O.2     1  LIG11      -0.1484
      5 O          -6.1973   -1.0298   -3.8672 O.3     1  LIG11      -0.4715
      6 O          -4.5831    0.9448   -8.5367 O.3     1  LIG11      -0.4914
      7 O          -6.3114   -3.9456   -4.1275 O.3     1  LIG11      -0.3917
      8 N          -1.8045    0.1092   -5.3399 N.pl3   1  LIG11      -0.1950
      9 N          -2.7131    2.7202   -3.7701 N.ar    1  LIG11      -0.2351
     10 N          -2.2795   -0.1713   -3.1255 N.ar    1  LIG11      -0.2073
     11 N          -4.4772   -0.5611   -2.3456 N.ar    1  LIG11      -0.1899
     12 N          -1.6356   -0.1876    1.8588 N.ar    1  LIG11      -0.2552
     13 N           0.6009    1.4731    2.4951 N.ar    1  LIG11      -0.5621
     14 N           0.6707    2.2762    0.3858 N.ar    1  LIG11      -0.1535
     15 N           1.5692    2.3657    2.2824 N.ar    1  LIG11      -0.3597
     16 N           1.6412    2.8813    1.0517 N.ar    1  LIG11      -0.0878
     17 C          -2.1438    4.2498   -0.3346 C.3     1  LIG11      -0.0201
     18 C          -1.8723    3.7303   -1.7361 C.ar    1  LIG11      -0.0266
     19 C          -1.5873    5.6586   -0.1469 C.3     1  LIG11      -0.0586
     20 C          -3.6322    4.2307    0.0278 C.3     1  LIG11      -0.0586
     21 C          -1.4248    2.5898   -4.1860 C.ar    1  LIG11       0.1969
     22 C          -0.5617    3.6225   -2.2375 C.ar    1  LIG11      -0.0535
     23 C          -2.8961    3.2647   -2.5583 C.ar    1  LIG11       0.0332
     24 C          -0.3237    3.0333   -3.4809 C.ar    1  LIG11      -0.0160
     25 C          -2.8015   -0.0439   -4.3570 C.ar    1  LIG11       0.1882
     26 C          -4.1448   -0.0888   -4.6802 C.ar    1  LIG11       0.2307
     27 C          -4.9206   -0.5393   -3.6279 C.ar    1  LIG11       0.2641
     28 C          -3.1719   -0.3118   -2.1457 C.ar    1  LIG11       0.1659
     29 C          -2.6709   -0.2392   -0.7651 C.ar    1  LIG11       0.0227
     30 C          -5.5883    0.8749   -6.3671 C.ar    1  LIG11       0.1702
     31 C          -1.5968    0.5957   -0.4104 C.ar    1  LIG11      -0.0252
     32 C          -3.2170   -1.0287    0.2448 C.ar    1  LIG11      -0.0328
     33 C          -6.7144   -1.9128   -2.8552 C.3     1  LIG11       0.1143
     34 C          -5.6931    1.1331   -7.7478 C.ar    1  LIG11       0.1621
     35 C          -1.1032    0.5930    0.8901 C.ar    1  LIG11       0.0708
     36 C          -6.6474    1.2593   -5.5438 C.ar    1  LIG11      -0.0157
     37 C          -2.6712   -0.9784    1.5155 C.ar    1  LIG11       0.0289
     38 C          -7.3195   -3.1803   -3.4717 C.3     1  LIG11       0.0783
     39 C          -6.9226    1.5241   -8.2917 C.ar    1  LIG11      -0.0163
     40 C          -7.8684    1.6548   -6.0923 C.ar    1  LIG11      -0.0581
     41 C          -8.0188    1.7485   -7.4679 C.ar    1  LIG11      -0.0581
     42 C           0.0404    1.4252    1.2690 C.ar    1  LIG11       0.0207
     43 C          -4.4980    1.8544   -9.6361 C.3     1  LIG11       0.0790
@<TRIPOS>BOND
     1     1    21    1
     2     1     8    1
     3     1     4    2
     4     1     3    2
     5     2    26    1
     6     2    30    1
     7     5    27    1
     8     5    33    1
     9     6    34    1
    10     6    43    1
    11     7    38    1
    12     8    25    1
    13     9    23   ar
    14     9    21   ar
    15    10    25   ar
    16    10    28   ar
    17    11    27   ar
    18    11    28   ar
    19    12    37   ar
    20    12    35   ar
    21    13    15   ar
    22    13    42   ar
    23    14    42   ar
    24    14    16   ar
    25    15    16   ar
    26    17    18    1
    27    17    20    1
    28    17    19    1
    29    18    23   ar
    30    18    22   ar
    31    21    24   ar
    32    22    24   ar
    33    25    26   ar
    34    26    27   ar
    35    28    29    1
    36    29    31   ar
    37    29    32   ar
    38    30    36   ar
    39    30    34   ar
    40    31    35   ar
    41    32    37   ar
    42    33    38    1
    43    34    39   ar
    44    35    42    1
    45    36    40   ar
    46    39    41   ar
    47    40    41   ar
@<TRIPOS>MOLECULE
../ET1/ET1_17-21_50CONFORMERS.pdb
 47 48 0 0 0
SMALL
GASTEIGER

@<TRIPOS>ATOM
      1  N         -4.8370   -0.0020   -1.9180 N.3    17  LEU17      -0.1231
      2  CA        -6.1040   -0.5080   -2.4970 C.3    17  LEU17       0.1693
      3  CB        -6.2200   -2.0150   -2.2660 C.3    17  LEU17       0.0284
      4  CG        -7.4870   -2.7880   -2.7410 C.3    17  LEU17       0.0019
      5  CD1       -7.7560   -2.6580   -4.2950 C.3    17  LEU17       0.0001
      6  CD2       -7.2700   -4.2410   -2.4020 C.3    17  LEU17       0.0001
      7  C         -7.3010    0.2940   -1.9850 C.2    17  LEU17       0.2592
      8  O         -8.1870    0.7640   -2.7030 O.2    17  LEU17      -0.2718
      9  N         -7.3250    0.4390   -0.6370 N.am   18  ASP18      -0.1960
     10  CA        -8.4150    1.1160    0.1670 C.3    18  ASP18       0.1840
     11  CB        -9.2830    0.1420    0.9540 C.3    18  ASP18       0.1450
     12  CG       -10.4660    0.8060    1.7740 C.2    18  ASP18       0.3671
     13  OD1      -11.2950    1.5080    1.1310 O.co2  18  ASP18      -0.2456
     14  OD2      -10.5110    0.6630    3.0340 O.co2  18  ASP18      -0.2456
     15  C         -7.8360    2.3080    0.9830 C.2    18  ASP18       0.2622
     16  O         -8.4860    3.3440    1.0790 O.2    18  ASP18      -0.2715
     17  N         -6.7010    2.1280    1.6470 N.am   19  ILE19      -0.1963
     18  CA        -6.0990    3.1840    2.4620 C.3    19  ILE19       0.1727
     19  CB        -5.1350    2.6390    3.5580 C.3    19  ILE19       0.0290
     20  CG2       -4.5740    3.8120    4.3410 C.3    19  ILE19       0.0023
     21  CG1       -5.7500    1.6370    4.5180 C.3    19  ILE19       0.0022
     22  CD1       -4.7460    0.7600    5.2450 C.3    19  ILE19       0.0001
     23  C         -5.4410    4.2970    1.6860 C.2    19  ILE19       0.2616
     24  O         -5.5330    5.4920    2.0890 O.2    19  ILE19      -0.2715
     25  N         -4.7740    3.9320    0.5900 N.am   20  ILE20      -0.1963
     26  CA        -4.1940    4.7710   -0.3960 C.3    20  ILE20       0.1727
     27  CB        -2.6220    4.7690   -0.2970 C.3    20  ILE20       0.0290
     28  CG2       -2.2290    5.8150   -1.3590 C.3    20  ILE20       0.0023
     29  CG1       -2.1680    5.1420    1.1400 C.3    20  ILE20       0.0022
     30  CD1       -0.6600    5.3030    1.3390 C.3    20  ILE20       0.0001
     31  C         -4.8240    4.4170   -1.7390 C.2    20  ILE20       0.2617
     32  O         -4.8430    3.2640   -2.1320 O.2    20  ILE20      -0.2715
     33  N         -5.3440    5.3850   -2.5070 N.am   21  TRP21      -0.1941
     34  CA        -5.8430    5.2260   -3.8960 C.3    21  TRP21       0.1982
     35  CB        -7.1750    4.4700   -3.9070 C.3    21  TRP21       0.0394
     36  CG        -7.5360    3.9570   -5.2690 C.3    21  TRP21       0.0475
     37  CD1       -8.1900    4.7020   -6.2020 C.3    21  TRP21       0.1166
     38  NE1       -8.4500    3.9790   -7.3380 N.pl3  21  TRP21      -0.2376
     39  CE2       -7.7020    2.8280   -7.2740 C.ar   21  TRP21       0.0614
     40  CZ2       -7.5760    1.8010   -8.2060 C.ar   21  TRP21       0.0158
     41  CH2       -6.9090    0.6250   -7.7970 C.ar   21  TRP21       0.0013
     42  CZ3       -6.5580    0.4430   -6.4490 C.ar   21  TRP21      -0.0002
     43  CE3       -6.6670    1.4790   -5.5350 C.ar   21  TRP21      -0.0030
     44  CD2       -7.2610    2.6790   -5.9050 C.ar   21  TRP21      -0.0059
     45  C         -5.9490    6.5820   -4.5280 C.2    21  TRP21       0.3842
     46  O         -5.3290    6.8220   -5.5630 O.co2  21  TRP21      -0.2437
     47  OXT       -6.5920    7.4700   -3.9460 O.co2  21  TRP21      -0.2437
@<TRIPOS>BOND
     1    40    41   ar
     2    40    39   ar
     3    41    42   ar
     4    39    38    1
     5    39    44   ar
     6    42    43   ar
     7    38    37    1
     8    43    44   ar
     9    44    36    1
    10    37    36    1
    11    36    35    1
    12    47    45   ar
    13     5     4    1
    14    35    34    1
    15    45    34    1
    16    45    46   ar
    17    34    33    1
    18     8     7    2
    19     4     6    1
    20     4     3    1
    21     2     3    1
    22     2     1    1
    23     2     7    1
    24     7     9   am
    25    33    31   am
    26    32    31    2
    27    31    26    1
    28     9    10    1
    29    10    11    1
    30    10    15    1
    31    26    27    1
    32    26    25    1
    33    11    12    1
    34    13    12   ar
    35    27    29    1
    36    27    28    1
    37    29    30    1
    38    16    15    2
    39    15    17   am
    40    12    14   ar
    41    25    23   am
    42    17    18    1
    43    23    24    2
    44    23    18    1
    45    18    19    1
    46    19    21    1
    47    19    20    1
    48    21    22    1
