@<TRIPOS>MOLECULE
../ET1/ET1_17-21_50CONFORMERS_NOBACKBONE.pdb
 26 23 0 0 0
SMALL
GASTEIGER

@<TRIPOS>ATOM
      1  CB        -6.1150   -1.4830   -0.5580 C.3    17  LEU17       0.0000
      2  CG        -7.4710   -2.1900   -0.5490 C.3    17  LEU17       0.0000
      3  CD1       -7.5650   -3.1290   -1.8160 C.3    17  LEU17       0.0000
      4  CD2       -7.6340   -3.0650    0.7330 C.3    17  LEU17       0.0000
      5  CB        -9.5330    1.3370    0.3720 C.3    18  ASP18       0.1258
      6  CG       -10.8210    2.1240    0.3740 C.2    18  ASP18       0.3654
      7  OD1      -11.4060    2.2040   -0.7190 O.co2  18  ASP18      -0.2456
      8  OD2      -11.1770    2.7140    1.4220 O.co2  18  ASP18      -0.2456
      9  CB        -5.4130    4.6360    2.5530 C.3    19  ILE19       0.0000
     10  CG2       -4.5050    5.7520    2.8080 C.3    19  ILE19       0.0000
     11  CG1       -6.1410    4.2180    3.8750 C.3    19  ILE19       0.0000
     12  CD1       -5.2560    3.8010    5.0260 C.3    19  ILE19       0.0000
     13  CB        -2.5150    4.5890   -1.3610 C.3    20  ILE20       0.0000
     14  CG2       -1.7230    4.4030   -2.6660 C.3    20  ILE20       0.0000
     15  CG1       -1.9230    5.6330   -0.4200 C.3    20  ILE20       0.0000
     16  CD1       -0.4510    5.5540   -0.0730 C.3    20  ILE20       0.0000
     17  CB        -7.4330    4.0930   -4.5870 C.3    21  TRP21       0.0066
     18  CG        -8.2260    3.2200   -5.4930 C.3    21  TRP21       0.0452
     19  CD1       -9.3870    3.6160   -6.0840 C.3    21  TRP21       0.1165
     20  NE1       -9.8600    2.5750   -6.9160 N.pl3  21  TRP21      -0.2376
     21  CE2       -8.9610    1.5660   -6.9710 C.ar   21  TRP21       0.0614
     22  CZ2       -8.8830    0.4700   -7.8450 C.ar   21  TRP21       0.0158
     23  CH2       -7.7910   -0.4630   -7.6930 C.ar   21  TRP21       0.0013
     24  CZ3       -6.8610   -0.2860   -6.7140 C.ar   21  TRP21      -0.0002
     25  CE3       -6.8910    0.8700   -5.9240 C.ar   21  TRP21      -0.0030
     26  CD2       -7.9350    1.8700   -5.9810 C.ar   21  TRP21      -0.0059
@<TRIPOS>BOND
     1    22    23   ar
     2    22    21   ar
     3    23    24   ar
     4    21    20    1
     5    21    26   ar
     6    24    25   ar
     7    20    19    1
     8    25    26   ar
     9    26    18    1
    10    19    18    1
    11    18    17    1
    12     3     2    1
    13     2     4    1
    14     2     1    1
    15     5     6    1
    16     7     6   ar
    17    13    15    1
    18    13    14    1
    19    15    16    1
    20     6     8   ar
    21     9    11    1
    22     9    10    1
    23    11    12    1
@<TRIPOS>MOLECULE
16219006
 44 47 0 0 0
SMALL
GASTEIGER

@<TRIPOS>ATOM
      1 O          -6.9954    3.2866    2.7874 O.2     1  PRO11      -0.2738
      2 O          -3.1484    3.0705    0.9666 O.2     5  ASP55      -0.2735
      3 O          -4.2026   -0.3591    1.2210 O.2     2  VAL22      -0.2738
      4 O          -5.1897    4.9163   -2.9875 O.2     4  TRP44      -0.2738
      5 O          -7.2320    1.8890   -1.3376 O.2     3  LEU33      -0.2738
      6 OD1        -1.7271    6.2536    0.4511 O.co2   5  ASP55      -0.5497
      7 OD2         0.0536    6.0899   -0.9627 O.co2   5  ASP55      -0.5497
      8 N          -4.6270    4.7892    1.0604 N.am    1  PRO11      -0.2884
      9 N          -5.0117    2.1470    2.7402 N.am    2  VAL22      -0.3022
     10 N          -3.7856    3.4995   -1.8461 N.am    5  ASP55      -0.3021
     11 N          -6.3467    0.1576    0.6029 N.am    3  LEU33      -0.3025
     12 N          -5.3616    1.3467   -2.5422 N.am    4  TRP44      -0.3022
     13 NE1        -5.2566   -0.7924   -6.5525 N.ar    4  TRP44      -0.3604
     14 CA         -4.9283    4.5761    2.4740 C.3     1  PRO11       0.1023
     15 CB         -5.6707    5.8448    2.9047 C.3     1  PRO11      -0.0243
     16 CG         -6.2754    6.3674    1.6077 C.3     1  PRO11      -0.0350
     17 CD         -5.2071    6.0317    0.5812 C.3     1  PRO11       0.0156
     18 C          -5.7705    3.2974    2.6844 C.2     1  PRO11       0.2342
     19 C          -3.5899    4.1098    0.4524 C.2     5  ASP55       0.2369
     20 CA         -5.5991    0.8162    2.8413 C.3     2  VAL22       0.1017
     21 CA         -3.1755    4.5254   -0.9830 C.3     5  ASP55       0.1047
     22 CB         -5.0108    0.0386    4.0391 C.3     2  VAL22      -0.0197
     23 CA         -6.1430   -0.2034   -0.7921 C.3     3  LEU33       0.0996
     24 C          -5.2972    0.1267    1.4978 C.2     2  VAL22       0.2342
     25 CB         -1.6662    4.5058   -1.1542 C.3     5  ASP55       0.0138
     26 CA         -5.4459    2.5452   -3.3856 C.3     4  TRP44       0.1034
     27 CB         -7.1807   -1.2149   -1.3010 C.3     3  LEU33      -0.0236
     28 CG         -6.9598   -2.6660   -0.8205 C.3     3  LEU33      -0.0446
     29 C          -4.8474    3.7759   -2.6796 C.2     4  TRP44       0.2343
     30 CB         -4.7183    2.3624   -4.7258 C.3     4  TRP44       0.0013
     31 C          -6.3051    1.1134   -1.5702 C.2     3  LEU33       0.2340
     32 CG1        -5.5146   -1.4090    4.0757 C.3     2  VAL22      -0.0605
     33 CG2        -5.3796    0.7228    5.3615 C.3     2  VAL22      -0.0605
     34 CG         -5.2026    1.1796   -5.5153 C.ar    4  TRP44      -0.0201
     35 CG         -1.0607    5.7342   -0.4855 C.2     5  ASP55       0.0440
     36 CD1        -7.2596   -2.8595    0.6664 C.3     3  LEU33      -0.0626
     37 CD2        -7.8431   -3.6184   -1.6333 C.3     3  LEU33      -0.0626
     38 CD2        -6.5061    0.9904   -6.0810 C.ar    4  TRP44       0.0029
     39 CD1        -4.4612    0.0579   -5.8348 C.ar    4  TRP44       0.0060
     40 CE2        -6.5113   -0.2553   -6.7103 C.ar    4  TRP44       0.0467
     41 CE3        -7.6864    1.7611   -6.1115 C.ar    4  TRP44      -0.0523
     42 CZ2        -7.6395   -0.7725   -7.3600 C.ar    4  TRP44      -0.0378
     43 CZ3        -8.8238    1.2582   -6.7531 C.ar    4  TRP44      -0.0611
     44 CH2        -8.7976    0.0078   -7.3665 C.ar    4  TRP44      -0.0598
@<TRIPOS>BOND
     1     1    18    2
     2     2    19    2
     3     3    24    2
     4     4    29    2
     5     5    31    2
     6     6    35   ar
     7     7    35   ar
     8     8    14    1
     9     8    17    1
    10     8    19   am
    11     9    18   am
    12     9    20    1
    13    10    21    1
    14    10    29   am
    15    11    23    1
    16    11    24   am
    17    12    26    1
    18    12    31   am
    19    13    39   ar
    20    13    40   ar
    21    14    15    1
    22    14    18    1
    23    15    16    1
    24    16    17    1
    25    19    21    1
    26    20    22    1
    27    20    24    1
    28    21    25    1
    29    22    32    1
    30    22    33    1
    31    23    27    1
    32    23    31    1
    33    25    35    1
    34    26    29    1
    35    26    30    1
    36    27    28    1
    37    28    36    1
    38    28    37    1
    39    30    34    1
    40    34    38   ar
    41    34    39   ar
    42    38    40   ar
    43    38    41   ar
    44    40    42   ar
    45    41    43   ar
    46    42    44   ar
    47    43    44   ar
@<TRIPOS>MOLECULE
../ET1/ET1_17-21_50CONFORMERS.pdb
 47 48 0 0 0
SMALL
GASTEIGER

@<TRIPOS>ATOM
      1  N         -4.5950    0.2540   -1.3750 N.3    17  LEU17      -0.1231
      2  CA        -5.8680   -0.4060   -1.6470 C.3    17  LEU17       0.1693
      3  CB        -6.1150   -1.4830   -0.5580 C.3    17  LEU17       0.0284
      4  CG        -7.4710   -2.1900   -0.5490 C.3    17  LEU17       0.0019
      5  CD1       -7.5650   -3.1290   -1.8160 C.3    17  LEU17       0.0001
      6  CD2       -7.6340   -3.0650    0.7330 C.3    17  LEU17       0.0001
      7  C         -6.9860    0.6360   -1.6690 C.2    17  LEU17       0.2592
      8  O         -7.6340    0.7430   -2.7370 O.2    17  LEU17      -0.2718
      9  N         -7.2970    1.3320   -0.5610 N.am   18  ASP18      -0.1960
     10  CA        -8.4790    2.2020   -0.3870 C.3    18  ASP18       0.1840
     11  CB        -9.5330    1.3370    0.3720 C.3    18  ASP18       0.1450
     12  CG       -10.8210    2.1240    0.3740 C.2    18  ASP18       0.3671
     13  OD1      -11.4060    2.2040   -0.7190 O.co2  18  ASP18      -0.2456
     14  OD2      -11.1770    2.7140    1.4220 O.co2  18  ASP18      -0.2456
     15  C         -8.0910    3.5840    0.1800 C.2    18  ASP18       0.2622
     16  O         -8.7800    4.5590   -0.1210 O.2    18  ASP18      -0.2715
     17  N         -7.0700    3.6540    1.0290 N.am   19  ILE19      -0.1963
     18  CA        -6.3960    4.9150    1.3660 C.3    19  ILE19       0.1727
     19  CB        -5.4130    4.6360    2.5530 C.3    19  ILE19       0.0290
     20  CG2       -4.5050    5.7520    2.8080 C.3    19  ILE19       0.0023
     21  CG1       -6.1410    4.2180    3.8750 C.3    19  ILE19       0.0022
     22  CD1       -5.2560    3.8010    5.0260 C.3    19  ILE19       0.0001
     23  C         -5.6610    5.3990    0.0870 C.2    19  ILE19       0.2616
     24  O         -5.9120    6.4560   -0.4040 O.2    19  ILE19      -0.2715
     25  N         -4.7450    4.5400   -0.4380 N.am   20  ILE20      -0.1963
     26  CA        -4.0060    4.7800   -1.6650 C.3    20  ILE20       0.1727
     27  CB        -2.5150    4.5890   -1.3610 C.3    20  ILE20       0.0290
     28  CG2       -1.7230    4.4030   -2.6660 C.3    20  ILE20       0.0023
     29  CG1       -1.9230    5.6330   -0.4200 C.3    20  ILE20       0.0022
     30  CD1       -0.4510    5.5540   -0.0730 C.3    20  ILE20       0.0001
     31  C         -4.6610    4.0040   -2.7590 C.2    20  ILE20       0.2617
     32  O         -4.6370    2.7640   -2.7060 O.2    20  ILE20      -0.2715
     33  N         -5.1840    4.7980   -3.7140 N.am   21  TRP21      -0.1941
     34  CA        -5.9280    4.3140   -4.9110 C.3    21  TRP21       0.1982
     35  CB        -7.4330    4.0930   -4.5870 C.3    21  TRP21       0.0394
     36  CG        -8.2260    3.2200   -5.4930 C.3    21  TRP21       0.0475
     37  CD1       -9.3870    3.6160   -6.0840 C.3    21  TRP21       0.1166
     38  NE1       -9.8600    2.5750   -6.9160 N.pl3  21  TRP21      -0.2376
     39  CE2       -8.9610    1.5660   -6.9710 C.ar   21  TRP21       0.0614
     40  CZ2       -8.8830    0.4700   -7.8450 C.ar   21  TRP21       0.0158
     41  CH2       -7.7910   -0.4630   -7.6930 C.ar   21  TRP21       0.0013
     42  CZ3       -6.8610   -0.2860   -6.7140 C.ar   21  TRP21      -0.0002
     43  CE3       -6.8910    0.8700   -5.9240 C.ar   21  TRP21      -0.0030
     44  CD2       -7.9350    1.8700   -5.9810 C.ar   21  TRP21      -0.0059
     45  C         -5.7590    5.3050   -6.0770 C.2    21  TRP21       0.3842
     46  O         -5.6460    4.8080   -7.2450 O.co2  21  TRP21      -0.2437
     47  OXT       -5.7750    6.5610   -5.9010 O.co2  21  TRP21      -0.2437
@<TRIPOS>BOND
     1    40    41   ar
     2    40    39   ar
     3    41    42   ar
     4    39    38    1
     5    39    44   ar
     6    42    43   ar
     7    38    37    1
     8    43    44   ar
     9    44    36    1
    10    37    36    1
    11    36    35    1
    12    47    45   ar
    13     5     4    1
    14    35    34    1
    15    45    34    1
    16    45    46   ar
    17    34    33    1
    18     8     7    2
    19     4     6    1
    20     4     3    1
    21     2     3    1
    22     2     1    1
    23     2     7    1
    24     7     9   am
    25    33    31   am
    26    32    31    2
    27    31    26    1
    28     9    10    1
    29    10    11    1
    30    10    15    1
    31    26    27    1
    32    26    25    1
    33    11    12    1
    34    13    12   ar
    35    27    29    1
    36    27    28    1
    37    29    30    1
    38    16    15    2
    39    15    17   am
    40    12    14   ar
    41    25    23   am
    42    17    18    1
    43    23    24    2
    44    23    18    1
    45    18    19    1
    46    19    21    1
    47    19    20    1
    48    21    22    1
