@<TRIPOS>MOLECULE
../ET1/ET1_17-21_50CONFORMERS_NOBACKBONE.pdb
 26 23 0 0 0
SMALL
GASTEIGER

@<TRIPOS>ATOM
      1  CB        -6.1790   -1.2220   -0.4480 C.3    17  LEU17       0.0000
      2  CG        -7.2710   -2.2600   -0.6260 C.3    17  LEU17       0.0000
      3  CD1       -7.0390   -3.3820   -1.7660 C.3    17  LEU17       0.0000
      4  CD2       -7.5630   -2.8400    0.7060 C.3    17  LEU17       0.0000
      5  CB        -9.2830    1.6460   -1.8020 C.3    18  ASP18       0.1258
      6  CG       -10.5370    2.4520   -2.2150 C.2    18  ASP18       0.3654
      7  OD1      -11.1140    2.0050   -3.2510 O.co2  18  ASP18      -0.2456
      8  OD2      -10.9560    3.4170   -1.5210 O.co2  18  ASP18      -0.2456
      9  CB        -7.4840    5.3020    1.2320 C.3    19  ILE19       0.0000
     10  CG2       -6.9460    6.6770    1.8040 C.3    19  ILE19       0.0000
     11  CG1       -8.9970    5.0190    1.4390 C.3    19  ILE19       0.0000
     12  CD1       -9.6510    5.0260    2.8000 C.3    19  ILE19       0.0000
     13  CB        -2.1940    4.4390   -0.1210 C.3    20  ILE20       0.0000
     14  CG2       -0.8360    4.4230   -0.8410 C.3    20  ILE20       0.0000
     15  CG1       -2.0260    5.1680    1.2250 C.3    20  ILE20       0.0000
     16  CD1       -3.0830    4.8000    2.2720 C.3    20  ILE20       0.0000
     17  CB        -4.9890    4.5460   -5.3170 C.3    21  TRP21       0.0066
     18  CG        -5.3170    4.0380   -6.7550 C.3    21  TRP21       0.0452
     19  CD1       -5.2500    4.7270   -7.9210 C.3    21  TRP21       0.1165
     20  NE1       -5.5580    3.8940   -8.9880 N.pl3  21  TRP21      -0.2376
     21  CE2       -5.8900    2.6280   -8.5770 C.ar   21  TRP21       0.0614
     22  CZ2       -6.3820    1.5100   -9.2020 C.ar   21  TRP21       0.0158
     23  CH2       -6.8100    0.4000   -8.5950 C.ar   21  TRP21       0.0013
     24  CZ3       -6.8190    0.4660   -7.1640 C.ar   21  TRP21      -0.0002
     25  CE3       -6.3210    1.6010   -6.4690 C.ar   21  TRP21      -0.0030
     26  CD2       -5.8180    2.6990   -7.1070 C.ar   21  TRP21      -0.0059
@<TRIPOS>BOND
     1    22    23   ar
     2    22    21   ar
     3    23    24   ar
     4    21    20    1
     5    21    26   ar
     6    24    25   ar
     7    20    19    1
     8    25    26   ar
     9    26    18    1
    10    19    18    1
    11    18    17    1
    12     3     2    1
    13     2     4    1
    14     2     1    1
    15     5     6    1
    16     7     6   ar
    17    13    15    1
    18    13    14    1
    19    15    16    1
    20     6     8   ar
    21     9    11    1
    22     9    10    1
    23    11    12    1
@<TRIPOS>MOLECULE
HTS1204-03362316-01
 44 47 0 0 0
SMALL
USER_CHARGES

@<TRIPOS>ATOM
      1 C1         -5.1746    0.8324   -5.2800 C.ar    1  UNK11      -0.0199
      2 N1         -7.1549   -0.1447   -5.6107 N.ar    1  UNK11      -0.3494
      3 C2         -7.3954    2.0930    1.3939 C.2     1  UNK11       0.3028
      4 C3         -6.0895   -0.0584   -4.7659 C.ar    1  UNK11       0.0086
      5 C4         -2.5713    2.7724   -3.1478 C.2     1  UNK11       0.2342
      6 C5         -5.6745    1.2133   -6.5717 C.ar    1  UNK11       0.0031
      7 C6         -5.7107    1.4362   -1.6764 C.2     1  UNK11       0.2340
      8 C7         -6.9075    0.5747   -6.7568 C.ar    1  UNK11       0.0491
      9 N2         -6.2971    1.9550    0.6020 N.am    1  UNK11      -0.2879
     10 N3         -7.5413    3.3590    1.9631 N.am    1  UNK11      -0.2856
     11 N4         -4.4201    1.3649   -2.1768 N.am    1  UNK11      -0.3022
     12 N5         -2.2864    3.5549   -2.0727 N.am    1  UNK11      -0.3054
     13 C8         -3.9742    2.1190   -3.3619 C.3     1  UNK11       0.1034
     14 C9         -5.9051    0.8249   -0.2567 C.3     1  UNK11       0.1011
     15 C10        -3.0429    3.8249   -0.8308 C.3     1  UNK11       0.0680
     16 C11        -3.8778    1.2305   -4.6331 C.3     1  UNK11       0.0013
     17 C12        -3.1045    2.6527    0.1880 C.2     1  UNK11       0.0623
     18 C13        -2.4103    4.9766   -0.0271 C.3     1  UNK11       0.0133
     19 O1         -8.2075    1.1973    1.6143 O.2     1  UNK11      -0.2526
     20 O2         -6.6250    1.9946   -2.2862 O.2     1  UNK11      -0.2738
     21 O3         -1.6925    2.7281   -4.0212 O.2     1  UNK11      -0.2738
     22 N6         -2.1765    6.6297   -1.8238 N.ar    1  UNK11      -0.2598
     23 O4         -2.6051    1.5548   -0.1959 O.co2   1  UNK11      -0.5479
     24 C14        -6.8592   -0.3780   -0.2650 C.3     1  UNK11      -0.0236
     25 C15        -2.7048    6.3384   -0.6104 C.ar    1  UNK11       0.0434
     26 O5         -3.8028    2.8692    1.2237 O.co2   1  UNK11      -0.5479
     27 C16        -8.3565   -0.8922   -5.3252 C.3     1  UNK11       0.0119
     28 C17        -8.5470    3.4982    3.0177 C.3     1  UNK11       0.0161
     29 C18        -6.9310    4.5699    1.4074 C.3     1  UNK11       0.0161
     30 C19        -7.6625    0.7206   -7.9313 C.ar    1  UNK11      -0.0376
     31 C20        -5.1850    2.0323   -7.6120 C.ar    1  UNK11      -0.0523
     32 C21        -6.3379   -1.6420   -0.9763 C.3     1  UNK11      -0.0446
     33 C22        -2.4458    7.8433   -2.3472 C.ar    1  UNK11       0.0279
     34 C23        -3.4612    7.2611    0.1105 C.ar    1  UNK11      -0.0403
     35 C24        -7.3805   -2.7590   -0.8692 C.3     1  UNK11      -0.0626
     36 C25        -4.9958   -2.1305   -0.4321 C.3     1  UNK11      -0.0626
     37 C26        -8.9662    4.9259    3.3696 C.3     1  UNK11      -0.0371
     38 C27        -7.8780    5.3348    0.4766 C.3     1  UNK11      -0.0371
     39 C28        -5.9255    2.1771   -8.7920 C.ar    1  UNK11      -0.0611
     40 C29        -7.1467    1.5285   -8.9473 C.ar    1  UNK11      -0.0598
     41 C30        -3.1894    8.8138   -1.6991 C.ar    1  UNK11      -0.0436
     42 C31        -3.6984    8.5170   -0.4413 C.ar    1  UNK11      -0.0586
     43 C32        -9.7262    5.6543    2.2588 C.3     1  UNK11      -0.0516
     44 C33        -9.3649    5.2705    0.8258 C.3     1  UNK11      -0.0516
@<TRIPOS>BOND
     1     2     4   ar
     2     3     9   am
     3     1     4   ar
     4     5    13    1
     5     1     6   ar
     6     7    11   am
     7     6     8   ar
     8     9    14    1
     9     3    10   am
    10    11    13    1
    11     5    12   am
    12    13    16    1
    13     7    14    1
    14    12    15    1
    15     1    16    1
    16    15    17    1
    17    15    18    1
    18     3    19    2
    19     7    20    2
    20     5    21    2
    21    22    25   ar
    22    17    23   ar
    23    14    24    1
    24    18    25    1
    25    17    26   ar
    26     2    27    1
    27    10    28    1
    28    10    29    1
    29     8    30   ar
    30     6    31   ar
    31    24    32    1
    32    22    33   ar
    33    25    34   ar
    34    32    35    1
    35    32    36    1
    36    28    37    1
    37    29    38    1
    38    31    39   ar
    39    39    40   ar
    40    41    42   ar
    41    34    42   ar
    42    37    43    1
    43    38    44    1
    44     2     8   ar
    45    30    40   ar
    46    33    41   ar
    47    43    44    1
@<TRIPOS>MOLECULE
../ET1/ET1_17-21_50CONFORMERS.pdb
 47 48 0 0 0
SMALL
GASTEIGER

@<TRIPOS>ATOM
      1  N         -4.4410    0.2010   -1.3300 N.3    17  LEU17      -0.1231
      2  CA        -5.5650   -0.6370   -1.7110 C.3    17  LEU17       0.1693
      3  CB        -6.1790   -1.2220   -0.4480 C.3    17  LEU17       0.0284
      4  CG        -7.2710   -2.2600   -0.6260 C.3    17  LEU17       0.0019
      5  CD1       -7.0390   -3.3820   -1.7660 C.3    17  LEU17       0.0001
      6  CD2       -7.5630   -2.8400    0.7060 C.3    17  LEU17       0.0001
      7  C         -6.4970    0.2350   -2.5900 C.2    17  LEU17       0.2592
      8  O         -6.8530   -0.0600   -3.7650 O.2    17  LEU17      -0.2718
      9  N         -6.9540    1.3410   -2.0600 N.am   18  ASP18      -0.1960
     10  CA        -8.0640    2.1930   -2.4620 C.3    18  ASP18       0.1840
     11  CB        -9.2830    1.6460   -1.8020 C.3    18  ASP18       0.1450
     12  CG       -10.5370    2.4520   -2.2150 C.2    18  ASP18       0.3671
     13  OD1      -11.1140    2.0050   -3.2510 O.co2  18  ASP18      -0.2456
     14  OD2      -10.9560    3.4170   -1.5210 O.co2  18  ASP18      -0.2456
     15  C         -7.9070    3.6610   -2.1470 C.2    18  ASP18       0.2622
     16  O         -8.2070    4.6000   -2.9010 O.2    18  ASP18      -0.2715
     17  N         -7.5000    3.8940   -0.8870 N.am   19  ILE19      -0.1963
     18  CA        -7.1370    5.2190   -0.2970 C.3    19  ILE19       0.1727
     19  CB        -7.4840    5.3020    1.2320 C.3    19  ILE19       0.0290
     20  CG2       -6.9460    6.6770    1.8040 C.3    19  ILE19       0.0023
     21  CG1       -8.9970    5.0190    1.4390 C.3    19  ILE19       0.0022
     22  CD1       -9.6510    5.0260    2.8000 C.3    19  ILE19       0.0001
     23  C         -5.7050    5.6160   -0.7450 C.2    19  ILE19       0.2616
     24  O         -5.5450    6.6670   -1.4030 O.2    19  ILE19      -0.2715
     25  N         -4.6630    4.8680   -0.3900 N.am   20  ILE20      -0.1963
     26  CA        -3.3280    4.9590   -1.0090 C.3    20  ILE20       0.1727
     27  CB        -2.1940    4.4390   -0.1210 C.3    20  ILE20       0.0290
     28  CG2       -0.8360    4.4230   -0.8410 C.3    20  ILE20       0.0023
     29  CG1       -2.0260    5.1680    1.2250 C.3    20  ILE20       0.0022
     30  CD1       -3.0830    4.8000    2.2720 C.3    20  ILE20       0.0001
     31  C         -3.4160    4.2400   -2.3320 C.2    20  ILE20       0.2617
     32  O         -3.5130    3.0230   -2.3730 O.2    20  ILE20      -0.2715
     33  N         -3.2910    4.9330   -3.5120 N.am   21  TRP21      -0.1941
     34  CA        -3.5400    4.5000   -4.9110 C.3    21  TRP21       0.1982
     35  CB        -4.9890    4.5460   -5.3170 C.3    21  TRP21       0.0394
     36  CG        -5.3170    4.0380   -6.7550 C.3    21  TRP21       0.0475
     37  CD1       -5.2500    4.7270   -7.9210 C.3    21  TRP21       0.1166
     38  NE1       -5.5580    3.8940   -8.9880 N.pl3  21  TRP21      -0.2376
     39  CE2       -5.8900    2.6280   -8.5770 C.ar   21  TRP21       0.0614
     40  CZ2       -6.3820    1.5100   -9.2020 C.ar   21  TRP21       0.0158
     41  CH2       -6.8100    0.4000   -8.5950 C.ar   21  TRP21       0.0013
     42  CZ3       -6.8190    0.4660   -7.1640 C.ar   21  TRP21      -0.0002
     43  CE3       -6.3210    1.6010   -6.4690 C.ar   21  TRP21      -0.0030
     44  CD2       -5.8180    2.6990   -7.1070 C.ar   21  TRP21      -0.0059
     45  C         -2.6350    5.2710   -5.8620 C.2    21  TRP21       0.3842
     46  O         -2.0630    4.6330   -6.7090 O.co2  21  TRP21      -0.2437
     47  OXT       -2.4590    6.4990   -5.7050 O.co2  21  TRP21      -0.2437
@<TRIPOS>BOND
     1    40    41   ar
     2    40    39   ar
     3    41    42   ar
     4    39    38    1
     5    39    44   ar
     6    42    43   ar
     7    38    37    1
     8    43    44   ar
     9    44    36    1
    10    37    36    1
    11    36    35    1
    12    47    45   ar
    13     5     4    1
    14    35    34    1
    15    45    34    1
    16    45    46   ar
    17    34    33    1
    18     8     7    2
    19     4     6    1
    20     4     3    1
    21     2     3    1
    22     2     1    1
    23     2     7    1
    24     7     9   am
    25    33    31   am
    26    32    31    2
    27    31    26    1
    28     9    10    1
    29    10    11    1
    30    10    15    1
    31    26    27    1
    32    26    25    1
    33    11    12    1
    34    13    12   ar
    35    27    29    1
    36    27    28    1
    37    29    30    1
    38    16    15    2
    39    15    17   am
    40    12    14   ar
    41    25    23   am
    42    17    18    1
    43    23    24    2
    44    23    18    1
    45    18    19    1
    46    19    21    1
    47    19    20    1
    48    21    22    1
