@<TRIPOS>MOLECULE
../ET1/ET1_17-21_50CONFORMERS_NOBACKBONE.pdb
 26 23 0 0 0
SMALL
GASTEIGER

@<TRIPOS>ATOM
      1  CB        -6.0320   -1.7260   -1.1030 C.3    17  LEU17       0.0000
      2  CG        -7.0780   -2.6010   -1.6650 C.3    17  LEU17       0.0000
      3  CD1       -6.7850   -3.1800   -3.0690 C.3    17  LEU17       0.0000
      4  CD2       -7.3480   -3.7290   -0.7320 C.3    17  LEU17       0.0000
      5  CB        -8.8130    1.1140    1.2660 C.3    18  ASP18       0.1258
      6  CG       -10.2300    1.4980    1.6400 C.2    18  ASP18       0.3654
      7  OD1      -10.4900    2.2680    2.5970 O.co2  18  ASP18      -0.2456
      8  OD2      -11.1770    1.1770    0.8180 O.co2  18  ASP18      -0.2456
      9  CB        -4.8870    4.3750    2.7780 C.3    19  ILE19       0.0000
     10  CG2       -4.4050    5.6090    3.4770 C.3    19  ILE19       0.0000
     11  CG1       -5.2510    3.2630    3.8230 C.3    19  ILE19       0.0000
     12  CD1       -6.5040    3.5010    4.6160 C.3    19  ILE19       0.0000
     13  CB        -3.0410    5.9480   -1.7710 C.3    20  ILE20       0.0000
     14  CG2       -2.9160    7.1040   -0.8250 C.3    20  ILE20       0.0000
     15  CG1       -1.9950    4.8170   -1.4230 C.3    20  ILE20       0.0000
     16  CD1       -0.5500    5.1390   -1.9550 C.3    20  ILE20       0.0000
     17  CB        -7.9200    4.1250   -3.7570 C.3    21  TRP21       0.0066
     18  CG        -8.4250    5.4530   -3.3620 C.3    21  TRP21       0.0452
     19  CD1       -8.1190    6.0680   -2.2450 C.3    21  TRP21       0.1165
     20  NE1       -8.7560    7.2690   -2.1720 N.pl3  21  TRP21      -0.2376
     21  CE2       -9.5810    7.4730   -3.2750 C.ar   21  TRP21       0.0614
     22  CZ2      -10.4220    8.4750   -3.7020 C.ar   21  TRP21       0.0158
     23  CH2      -11.1680    8.3670   -4.9280 C.ar   21  TRP21       0.0013
     24  CZ3      -11.0860    7.1640   -5.6280 C.ar   21  TRP21      -0.0002
     25  CE3      -10.1730    6.1170   -5.2330 C.ar   21  TRP21      -0.0030
     26  CD2       -9.4090    6.2620   -4.0570 C.ar   21  TRP21      -0.0059
@<TRIPOS>BOND
     1    22    23   ar
     2    22    21   ar
     3    23    24   ar
     4    21    20    1
     5    21    26   ar
     6    24    25   ar
     7    20    19    1
     8    25    26   ar
     9    26    18    1
    10    19    18    1
    11    18    17    1
    12     3     2    1
    13     2     4    1
    14     2     1    1
    15     5     6    1
    16     7     6   ar
    17    13    15    1
    18    13    14    1
    19    15    16    1
    20     6     8   ar
    21     9    11    1
    22     9    10    1
    23    11    12    1
@<TRIPOS>MOLECULE
HTS1204-03362316-01
 44 47 0 0 0
SMALL
USER_CHARGES

@<TRIPOS>ATOM
      1 C1         -9.4364    6.4542   -3.5820 C.ar    1  UNK11      -0.0199
      2 N1        -10.2812    8.5176   -3.4667 N.ar    1  UNK11      -0.3494
      3 C2         -5.5108    1.5688    1.4628 C.2     1  UNK11       0.3028
      4 C3         -9.5402    7.5840   -2.7925 C.ar    1  UNK11       0.0086
      5 C4         -6.3165    6.1796   -3.2348 C.2     1  UNK11       0.2342
      6 C5        -10.2036    6.7154   -4.7688 C.ar    1  UNK11       0.0031
      7 C6         -7.1543    3.1898   -1.1762 C.2     1  UNK11       0.2340
      8 C7        -10.7211    8.0095   -4.6694 C.ar    1  UNK11       0.0491
      9 N2         -5.4592    2.2257    0.2746 N.am    1  UNK11      -0.2879
     10 N3         -4.7557    2.1567    2.4746 N.am    1  UNK11      -0.2856
     11 N4         -6.8007    3.9867   -2.2474 N.am    1  UNK11      -0.3022
     12 N5         -5.1407    6.5147   -2.6147 N.am    1  UNK11      -0.3054
     13 C8         -7.3704    5.3200   -2.4876 C.3     1  UNK11       0.1034
     14 C9         -6.2073    1.9809   -0.9573 C.3     1  UNK11       0.1011
     15 C10        -4.5100    5.8967   -1.4189 C.3     1  UNK11       0.0680
     16 C11        -8.6811    5.1842   -3.2857 C.3     1  UNK11       0.0013
     17 C12        -3.9233    4.4708   -1.6445 C.2     1  UNK11       0.0623
     18 C13        -3.3247    6.7322   -0.9068 C.3     1  UNK11       0.0133
     19 O1         -6.1222    0.5177    1.6470 O.2     1  UNK11      -0.2526
     20 O2         -8.1028    3.4602   -0.4391 O.2     1  UNK11      -0.2738
     21 O3         -6.4960    6.6257   -4.3725 O.2     1  UNK11      -0.2738
     22 N6         -4.5179    8.8259   -0.4453 N.ar    1  UNK11      -0.2598
     23 O4         -4.1381    3.9607   -2.7848 O.co2   1  UNK11      -0.5479
     24 C14        -6.9700    0.6586   -1.1049 C.3     1  UNK11      -0.0236
     25 C15        -3.7452    7.8276    0.0456 C.ar    1  UNK11       0.0434
     26 O5         -3.4447    3.9018   -0.6187 O.co2   1  UNK11      -0.5479
     27 C16       -10.5467    9.8558   -2.9917 C.3     1  UNK11       0.0119
     28 C17        -4.3513    1.3035    3.5918 C.3     1  UNK11       0.0161
     29 C18        -4.5746    3.6061    2.5853 C.3     1  UNK11       0.0161
     30 C19       -11.5137    8.5791   -5.6809 C.ar    1  UNK11      -0.0376
     31 C20       -10.4941    5.9638   -5.9284 C.ar    1  UNK11      -0.0523
     32 C21        -6.0694   -0.5898   -1.2582 C.3     1  UNK11      -0.0446
     33 C22        -4.8792    9.8117    0.4008 C.ar    1  UNK11       0.0279
     34 C23        -3.3022    7.8159    1.3678 C.ar    1  UNK11      -0.0403
     35 C24        -5.1646   -0.5232   -2.4915 C.3     1  UNK11      -0.0626
     36 C25        -6.9394   -1.8471   -1.3274 C.3     1  UNK11      -0.0626
     37 C26        -3.8800    2.0240    4.8543 C.3     1  UNK11      -0.0371
     38 C27        -5.5819    4.2588    3.5401 C.3     1  UNK11      -0.0371
     39 C28       -11.2840    6.5193   -6.9412 C.ar    1  UNK11      -0.0611
     40 C29       -11.7860    7.8104   -6.8167 C.ar    1  UNK11      -0.0598
     41 C30        -4.4811    9.8757    1.7243 C.ar    1  UNK11      -0.0436
     42 C31        -3.6717    8.8585    2.2133 C.ar    1  UNK11      -0.0586
     43 C32        -4.9841    2.7915    5.5830 C.3     1  UNK11      -0.0516
     44 C33        -6.0740    3.3973    4.7028 C.3     1  UNK11      -0.0516
@<TRIPOS>BOND
     1     2     4   ar
     2     3     9   am
     3     1     4   ar
     4     5    13    1
     5     1     6   ar
     6     7    11   am
     7     6     8   ar
     8     9    14    1
     9     3    10   am
    10    11    13    1
    11     5    12   am
    12    13    16    1
    13     7    14    1
    14    12    15    1
    15     1    16    1
    16    15    17    1
    17    15    18    1
    18     3    19    2
    19     7    20    2
    20     5    21    2
    21    22    25   ar
    22    17    23   ar
    23    14    24    1
    24    18    25    1
    25    17    26   ar
    26     2    27    1
    27    10    28    1
    28    10    29    1
    29     8    30   ar
    30     6    31   ar
    31    24    32    1
    32    22    33   ar
    33    25    34   ar
    34    32    35    1
    35    32    36    1
    36    28    37    1
    37    29    38    1
    38    31    39   ar
    39    39    40   ar
    40    41    42   ar
    41    34    42   ar
    42    37    43    1
    43    38    44    1
    44     2     8   ar
    45    30    40   ar
    46    33    41   ar
    47    43    44    1
@<TRIPOS>MOLECULE
../ET1/ET1_17-21_50CONFORMERS.pdb
 47 48 0 0 0
SMALL
GASTEIGER

@<TRIPOS>ATOM
      1  N         -4.5390    0.2280   -1.6100 N.3    17  LEU17      -0.1231
      2  CA        -5.8680   -0.3980   -1.8940 C.3    17  LEU17       0.1693
      3  CB        -6.0320   -1.7260   -1.1030 C.3    17  LEU17       0.0284
      4  CG        -7.0780   -2.6010   -1.6650 C.3    17  LEU17       0.0019
      5  CD1       -6.7850   -3.1800   -3.0690 C.3    17  LEU17       0.0001
      6  CD2       -7.3480   -3.7290   -0.7320 C.3    17  LEU17       0.0001
      7  C         -7.1270    0.4540   -1.5890 C.2    17  LEU17       0.2592
      8  O         -8.1120    0.2970   -2.2000 O.2    17  LEU17      -0.2718
      9  N         -7.0630    1.2010   -0.5010 N.am   18  ASP18      -0.1960
     10  CA        -8.2440    1.9290    0.0850 C.3    18  ASP18       0.1840
     11  CB        -8.8130    1.1140    1.2660 C.3    18  ASP18       0.1450
     12  CG       -10.2300    1.4980    1.6400 C.2    18  ASP18       0.3671
     13  OD1      -10.4900    2.2680    2.5970 O.co2  18  ASP18      -0.2456
     14  OD2      -11.1770    1.1770    0.8180 O.co2  18  ASP18      -0.2456
     15  C         -7.8330    3.3550    0.6240 C.2    18  ASP18       0.2622
     16  O         -8.5870    4.3920    0.4550 O.2    18  ASP18      -0.2715
     17  N         -6.6540    3.4520    1.3220 N.am   19  ILE19      -0.1963
     18  CA        -6.0210    4.6750    1.7890 C.3    19  ILE19       0.1727
     19  CB        -4.8870    4.3750    2.7780 C.3    19  ILE19       0.0290
     20  CG2       -4.4050    5.6090    3.4770 C.3    19  ILE19       0.0023
     21  CG1       -5.2510    3.2630    3.8230 C.3    19  ILE19       0.0022
     22  CD1       -6.5040    3.5010    4.6160 C.3    19  ILE19       0.0001
     23  C         -5.5350    5.5070    0.5840 C.2    19  ILE19       0.2616
     24  O         -5.9050    6.6660    0.4660 O.2    19  ILE19      -0.2715
     25  N         -4.7320    4.9080   -0.3300 N.am   20  ILE20      -0.1963
     26  CA        -4.4970    5.4200   -1.7260 C.3    20  ILE20       0.1727
     27  CB        -3.0410    5.9480   -1.7710 C.3    20  ILE20       0.0290
     28  CG2       -2.9160    7.1040   -0.8250 C.3    20  ILE20       0.0023
     29  CG1       -1.9950    4.8170   -1.4230 C.3    20  ILE20       0.0022
     30  CD1       -0.5500    5.1390   -1.9550 C.3    20  ILE20       0.0001
     31  C         -4.9410    4.3990   -2.7850 C.2    20  ILE20       0.2617
     32  O         -4.8590    3.1790   -2.5280 O.2    20  ILE20      -0.2715
     33  N         -5.5740    4.8700   -3.8240 N.am   21  TRP21      -0.1941
     34  CA        -6.5840    4.1470   -4.6190 C.3    21  TRP21       0.1982
     35  CB        -7.9200    4.1250   -3.7570 C.3    21  TRP21       0.0394
     36  CG        -8.4250    5.4530   -3.3620 C.3    21  TRP21       0.0475
     37  CD1       -8.1190    6.0680   -2.2450 C.3    21  TRP21       0.1166
     38  NE1       -8.7560    7.2690   -2.1720 N.pl3  21  TRP21      -0.2376
     39  CE2       -9.5810    7.4730   -3.2750 C.ar   21  TRP21       0.0614
     40  CZ2      -10.4220    8.4750   -3.7020 C.ar   21  TRP21       0.0158
     41  CH2      -11.1680    8.3670   -4.9280 C.ar   21  TRP21       0.0013
     42  CZ3      -11.0860    7.1640   -5.6280 C.ar   21  TRP21      -0.0002
     43  CE3      -10.1730    6.1170   -5.2330 C.ar   21  TRP21      -0.0030
     44  CD2       -9.4090    6.2620   -4.0570 C.ar   21  TRP21      -0.0059
     45  C         -6.7510    4.7320   -6.0260 C.2    21  TRP21       0.3842
     46  O         -6.9370    3.8970   -6.9640 O.co2  21  TRP21      -0.2437
     47  OXT       -6.5930    5.9650   -6.2350 O.co2  21  TRP21      -0.2437
@<TRIPOS>BOND
     1    40    41   ar
     2    40    39   ar
     3    41    42   ar
     4    39    38    1
     5    39    44   ar
     6    42    43   ar
     7    38    37    1
     8    43    44   ar
     9    44    36    1
    10    37    36    1
    11    36    35    1
    12    47    45   ar
    13     5     4    1
    14    35    34    1
    15    45    34    1
    16    45    46   ar
    17    34    33    1
    18     8     7    2
    19     4     6    1
    20     4     3    1
    21     2     3    1
    22     2     1    1
    23     2     7    1
    24     7     9   am
    25    33    31   am
    26    32    31    2
    27    31    26    1
    28     9    10    1
    29    10    11    1
    30    10    15    1
    31    26    27    1
    32    26    25    1
    33    11    12    1
    34    13    12   ar
    35    27    29    1
    36    27    28    1
    37    29    30    1
    38    16    15    2
    39    15    17   am
    40    12    14   ar
    41    25    23   am
    42    17    18    1
    43    23    24    2
    44    23    18    1
    45    18    19    1
    46    19    21    1
    47    19    20    1
    48    21    22    1
