@<TRIPOS>MOLECULE
../ET1/ET1_17-21_50CONFORMERS_NOBACKBONE.pdb
 26 23 0 0 0
SMALL
GASTEIGER

@<TRIPOS>ATOM
      1  CB        -6.1680   -1.6030   -0.8030 C.3    17  LEU17       0.0000
      2  CG        -7.3010   -2.6660   -0.9890 C.3    17  LEU17       0.0000
      3  CD1       -6.9130   -3.7970   -1.9630 C.3    17  LEU17       0.0000
      4  CD2       -7.4830   -3.2850    0.3370 C.3    17  LEU17       0.0000
      5  CB        -9.3270    1.4400   -1.0160 C.3    18  ASP18       0.1258
      6  CG       -10.6300    2.2090   -1.2500 C.2    18  ASP18       0.3654
      7  OD1      -11.0860    2.2920   -2.4490 O.co2  18  ASP18      -0.2456
      8  OD2      -11.2320    2.7130   -0.3400 O.co2  18  ASP18      -0.2456
      9  CB        -7.2480    4.9270    1.5370 C.3    19  ILE19       0.0000
     10  CG2       -6.8910    6.2680    2.1860 C.3    19  ILE19       0.0000
     11  CG1       -8.6480    4.4460    2.0860 C.3    19  ILE19       0.0000
     12  CD1       -8.7390    4.2860    3.5900 C.3    19  ILE19       0.0000
     13  CB        -2.4540    4.3920    0.1650 C.3    20  ILE20       0.0000
     14  CG2       -0.9250    4.3550   -0.2960 C.3    20  ILE20       0.0000
     15  CG1       -2.3670    5.0710    1.5310 C.3    20  ILE20       0.0000
     16  CD1       -3.4310    4.7860    2.5760 C.3    20  ILE20       0.0000
     17  CB        -4.3330    5.4990   -4.9470 C.3    21  TRP21       0.0066
     18  CG        -4.7390    4.8290   -6.1730 C.3    21  TRP21       0.0452
     19  CD1       -4.3830    5.3150   -7.3710 C.3    21  TRP21       0.1165
     20  NE1       -4.8840    4.4920   -8.3410 N.pl3  21  TRP21      -0.2376
     21  CE2       -5.5200    3.3960   -7.8350 C.ar   21  TRP21       0.0614
     22  CZ2       -6.2050    2.3030   -8.4580 C.ar   21  TRP21       0.0158
     23  CH2       -6.8150    1.3270   -7.6190 C.ar   21  TRP21       0.0013
     24  CZ3       -6.9630    1.6000   -6.2310 C.ar   21  TRP21      -0.0002
     25  CE3       -6.3060    2.7150   -5.5920 C.ar   21  TRP21      -0.0030
     26  CD2       -5.5210    3.6010   -6.4020 C.ar   21  TRP21      -0.0059
@<TRIPOS>BOND
     1    22    23   ar
     2    22    21   ar
     3    23    24   ar
     4    21    20    1
     5    21    26   ar
     6    24    25   ar
     7    20    19    1
     8    25    26   ar
     9    26    18    1
    10    19    18    1
    11    18    17    1
    12     3     2    1
    13     2     4    1
    14     2     1    1
    15     5     6    1
    16     7     6   ar
    17    13    15    1
    18    13    14    1
    19    15    16    1
    20     6     8   ar
    21     9    11    1
    22     9    10    1
    23    11    12    1
@<TRIPOS>MOLECULE
46174111
 29 32 0 0 0
SMALL
GASTEIGER

@<TRIPOS>ATOM
      1 CL         -5.1444   -0.7040   -3.8260 Cl      1  LIG11      -0.0762
      2 S          -2.5322    2.2006   -3.1838 S.O2    1  LIG11       0.0758
      3 S          -1.7666    4.3920   -6.7595 S.2     1  LIG11      -0.0918
      4 O          -5.3750    0.9172   -9.1629 O.3     1  LIG11      -0.4526
      5 O          -7.2938    0.0353   -7.9970 O.3     1  LIG11      -0.4526
      6 O          -4.1958    4.8658   -3.8767 O.2     1  LIG11      -0.2911
      7 O          -1.9255    3.0184   -2.1598 O.2     1  LIG11      -0.1499
      8 O          -2.1853    0.8074   -3.3646 O.2     1  LIG11      -0.1499
      9 O          -5.0578    1.7784   -0.8378 O.2     1  LIG11      -0.3364
     10 N          -4.2124    2.3735   -3.0651 N.pl3   1  LIG11      -0.1821
     11 N          -5.6108    0.6810   -0.1991 N.ar    1  LIG11      -0.0798
     12 C          -5.6367    3.5472   -6.5898 C.ar    1  LIG11      -0.0333
     13 C          -4.9345    4.8194   -6.1531 C.3     1  LIG11       0.0366
     14 C          -6.7606    3.0165   -5.8937 C.ar    1  LIG11      -0.0432
     15 C          -1.9832    2.9442   -4.6572 C.ar    1  LIG11       0.1261
     16 C          -2.6585    3.9169   -5.3732 C.ar    1  LIG11       0.0814
     17 C          -5.1299    2.8585   -7.7114 C.ar    1  LIG11      -0.0123
     18 C          -3.9152    4.5740   -5.0443 C.2     1  LIG11       0.1759
     19 C          -5.7428    1.6891   -8.1060 C.ar    1  LIG11       0.1665
     20 C          -6.8307    1.1865   -7.4422 C.ar    1  LIG11       0.1665
     21 C          -7.3640    1.8256   -6.3454 C.ar    1  LIG11      -0.0130
     22 C          -7.4036    3.7181   -4.7266 C.3     1  LIG11      -0.0393
     23 C          -0.7369    2.5871   -5.2644 C.ar    1  LIG11      -0.0273
     24 C          -6.3584   -0.1364   -9.0820 C.3     1  LIG11       0.2332
     25 C          -0.5029    3.2963   -6.4194 C.ar    1  LIG11      -0.0217
     26 C          -4.7600    1.4559   -2.1252 C.ar    1  LIG11       0.2554
     27 C          -5.1645    0.1645   -2.3688 C.ar    1  LIG11       0.1262
     28 C          -5.6742   -0.2840   -1.1279 C.ar    1  LIG11       0.1009
     29 C          -6.2621   -1.6011   -0.7932 C.3     1  LIG11      -0.0176
@<TRIPOS>BOND
     1     1    27    1
     2     2    10    1
     3     2    15    1
     4     2     8    2
     5     2     7    2
     6     3    16   ar
     7     3    25   ar
     8     4    24    1
     9     4    19    1
    10     5    20    1
    11     5    24    1
    12     6    18    2
    13     9    11   ar
    14     9    26   ar
    15    10    26    1
    16    11    28   ar
    17    12    17   ar
    18    12    14   ar
    19    13    18    1
    20    13    12    1
    21    14    21   ar
    22    14    22    1
    23    15    23   ar
    24    15    16   ar
    25    16    18    1
    26    17    19   ar
    27    19    20   ar
    28    20    21   ar
    29    23    25   ar
    30    26    27   ar
    31    27    28   ar
    32    28    29    1
@<TRIPOS>MOLECULE
../ET1/ET1_17-21_50CONFORMERS.pdb
 47 48 0 0 0
SMALL
GASTEIGER

@<TRIPOS>ATOM
      1  N         -4.4070   -0.1580   -1.6100 N.3    17  LEU17      -0.1231
      2  CA        -5.6240   -0.8400   -1.9910 C.3    17  LEU17       0.1693
      3  CB        -6.1680   -1.6030   -0.8030 C.3    17  LEU17       0.0284
      4  CG        -7.3010   -2.6660   -0.9890 C.3    17  LEU17       0.0019
      5  CD1       -6.9130   -3.7970   -1.9630 C.3    17  LEU17       0.0001
      6  CD2       -7.4830   -3.2850    0.3370 C.3    17  LEU17       0.0001
      7  C         -6.6870    0.1230   -2.5080 C.2    17  LEU17       0.2592
      8  O         -7.3680   -0.2170   -3.4720 O.2    17  LEU17      -0.2718
      9  N         -7.0550    1.1550   -1.7250 N.am   18  ASP18      -0.1960
     10  CA        -8.2140    1.9780   -1.9970 C.3    18  ASP18       0.1840
     11  CB        -9.3270    1.4400   -1.0160 C.3    18  ASP18       0.1450
     12  CG       -10.6300    2.2090   -1.2500 C.2    18  ASP18       0.3671
     13  OD1      -11.0860    2.2920   -2.4490 O.co2  18  ASP18      -0.2456
     14  OD2      -11.2320    2.7130   -0.3400 O.co2  18  ASP18      -0.2456
     15  C         -7.8840    3.4890   -1.7310 C.2    18  ASP18       0.2622
     16  O         -8.1040    4.2530   -2.6550 O.2    18  ASP18      -0.2715
     17  N         -7.4380    3.8400   -0.5470 N.am   19  ILE19      -0.1963
     18  CA        -7.1780    5.1420    0.0290 C.3    19  ILE19       0.1727
     19  CB        -7.2480    4.9270    1.5370 C.3    19  ILE19       0.0290
     20  CG2       -6.8910    6.2680    2.1860 C.3    19  ILE19       0.0023
     21  CG1       -8.6480    4.4460    2.0860 C.3    19  ILE19       0.0022
     22  CD1       -8.7390    4.2860    3.5900 C.3    19  ILE19       0.0001
     23  C         -5.7780    5.6630   -0.5380 C.2    19  ILE19       0.2616
     24  O         -5.6970    6.7570   -1.0600 O.2    19  ILE19      -0.2715
     25  N         -4.7690    4.8050   -0.3150 N.am   20  ILE20      -0.1963
     26  CA        -3.4620    5.0020   -0.8160 C.3    20  ILE20       0.1727
     27  CB        -2.4540    4.3920    0.1650 C.3    20  ILE20       0.0290
     28  CG2       -0.9250    4.3550   -0.2960 C.3    20  ILE20       0.0023
     29  CG1       -2.3670    5.0710    1.5310 C.3    20  ILE20       0.0022
     30  CD1       -3.4310    4.7860    2.5760 C.3    20  ILE20       0.0001
     31  C         -3.2210    4.4080   -2.1730 C.2    20  ILE20       0.2617
     32  O         -3.6730    3.2860   -2.4590 O.2    20  ILE20      -0.2715
     33  N         -2.7570    5.2530   -3.1090 N.am   21  TRP21      -0.1941
     34  CA        -2.8960    5.1440   -4.5550 C.3    21  TRP21       0.1982
     35  CB        -4.3330    5.4990   -4.9470 C.3    21  TRP21       0.0394
     36  CG        -4.7390    4.8290   -6.1730 C.3    21  TRP21       0.0475
     37  CD1       -4.3830    5.3150   -7.3710 C.3    21  TRP21       0.1166
     38  NE1       -4.8840    4.4920   -8.3410 N.pl3  21  TRP21      -0.2376
     39  CE2       -5.5200    3.3960   -7.8350 C.ar   21  TRP21       0.0614
     40  CZ2       -6.2050    2.3030   -8.4580 C.ar   21  TRP21       0.0158
     41  CH2       -6.8150    1.3270   -7.6190 C.ar   21  TRP21       0.0013
     42  CZ3       -6.9630    1.6000   -6.2310 C.ar   21  TRP21      -0.0002
     43  CE3       -6.3060    2.7150   -5.5920 C.ar   21  TRP21      -0.0030
     44  CD2       -5.5210    3.6010   -6.4020 C.ar   21  TRP21      -0.0059
     45  C         -1.8100    6.0150   -5.1580 C.2    21  TRP21       0.3842
     46  O         -1.3610    5.7820   -6.2550 O.co2  21  TRP21      -0.2437
     47  OXT       -1.2950    6.9770   -4.4370 O.co2  21  TRP21      -0.2437
@<TRIPOS>BOND
     1    40    41   ar
     2    40    39   ar
     3    41    42   ar
     4    39    38    1
     5    39    44   ar
     6    42    43   ar
     7    38    37    1
     8    43    44   ar
     9    44    36    1
    10    37    36    1
    11    36    35    1
    12    47    45   ar
    13     5     4    1
    14    35    34    1
    15    45    34    1
    16    45    46   ar
    17    34    33    1
    18     8     7    2
    19     4     6    1
    20     4     3    1
    21     2     3    1
    22     2     1    1
    23     2     7    1
    24     7     9   am
    25    33    31   am
    26    32    31    2
    27    31    26    1
    28     9    10    1
    29    10    11    1
    30    10    15    1
    31    26    27    1
    32    26    25    1
    33    11    12    1
    34    13    12   ar
    35    27    29    1
    36    27    28    1
    37    29    30    1
    38    16    15    2
    39    15    17   am
    40    12    14   ar
    41    25    23   am
    42    17    18    1
    43    23    24    2
    44    23    18    1
    45    18    19    1
    46    19    21    1
    47    19    20    1
    48    21    22    1
