@<TRIPOS>MOLECULE
../ET1/ET1_17-21_50CONFORMERS_NOBACKBONE.pdb
 26 23 0 0 0
SMALL
GASTEIGER

@<TRIPOS>ATOM
      1  CB        -6.1150   -1.4830   -0.5580 C.3    17  LEU17       0.0000
      2  CG        -7.4710   -2.1900   -0.5490 C.3    17  LEU17       0.0000
      3  CD1       -7.5650   -3.1290   -1.8160 C.3    17  LEU17       0.0000
      4  CD2       -7.6340   -3.0650    0.7330 C.3    17  LEU17       0.0000
      5  CB        -9.5330    1.3370    0.3720 C.3    18  ASP18       0.1258
      6  CG       -10.8210    2.1240    0.3740 C.2    18  ASP18       0.3654
      7  OD1      -11.4060    2.2040   -0.7190 O.co2  18  ASP18      -0.2456
      8  OD2      -11.1770    2.7140    1.4220 O.co2  18  ASP18      -0.2456
      9  CB        -5.4130    4.6360    2.5530 C.3    19  ILE19       0.0000
     10  CG2       -4.5050    5.7520    2.8080 C.3    19  ILE19       0.0000
     11  CG1       -6.1410    4.2180    3.8750 C.3    19  ILE19       0.0000
     12  CD1       -5.2560    3.8010    5.0260 C.3    19  ILE19       0.0000
     13  CB        -2.5150    4.5890   -1.3610 C.3    20  ILE20       0.0000
     14  CG2       -1.7230    4.4030   -2.6660 C.3    20  ILE20       0.0000
     15  CG1       -1.9230    5.6330   -0.4200 C.3    20  ILE20       0.0000
     16  CD1       -0.4510    5.5540   -0.0730 C.3    20  ILE20       0.0000
     17  CB        -7.4330    4.0930   -4.5870 C.3    21  TRP21       0.0066
     18  CG        -8.2260    3.2200   -5.4930 C.3    21  TRP21       0.0452
     19  CD1       -9.3870    3.6160   -6.0840 C.3    21  TRP21       0.1165
     20  NE1       -9.8600    2.5750   -6.9160 N.pl3  21  TRP21      -0.2376
     21  CE2       -8.9610    1.5660   -6.9710 C.ar   21  TRP21       0.0614
     22  CZ2       -8.8830    0.4700   -7.8450 C.ar   21  TRP21       0.0158
     23  CH2       -7.7910   -0.4630   -7.6930 C.ar   21  TRP21       0.0013
     24  CZ3       -6.8610   -0.2860   -6.7140 C.ar   21  TRP21      -0.0002
     25  CE3       -6.8910    0.8700   -5.9240 C.ar   21  TRP21      -0.0030
     26  CD2       -7.9350    1.8700   -5.9810 C.ar   21  TRP21      -0.0059
@<TRIPOS>BOND
     1    22    23   ar
     2    22    21   ar
     3    23    24   ar
     4    21    20    1
     5    21    26   ar
     6    24    25   ar
     7    20    19    1
     8    25    26   ar
     9    26    18    1
    10    19    18    1
    11    18    17    1
    12     3     2    1
    13     2     4    1
    14     2     1    1
    15     5     6    1
    16     7     6   ar
    17    13    15    1
    18    13    14    1
    19    15    16    1
    20     6     8   ar
    21     9    11    1
    22     9    10    1
    23    11    12    1
@<TRIPOS>MOLECULE
01012527H
 38 40 0 0 0
SMALL
GASTEIGER

@<TRIPOS>ATOM
      1 C          -9.3692    1.5746   -3.7274 C.3     1  LIG11       0.0531
      2 C          -8.5133    1.3528   -2.4870 C.3     1  LIG11      -0.0111
      3 C          -8.5473    2.3311   -4.7609 C.3     1  LIG11       0.0375
      4 C         -10.4549    2.4502   -3.1113 C.2     1  LIG11       0.0509
      5 N          -7.2792    2.2599   -2.6955 N.3     1  LIG11       0.2448
      6 C          -7.9779   -0.0807   -2.2640 C.3     1  LIG11      -0.0039
      7 C          -7.9903    1.4074   -5.8386 C.ar    1  LIG11      -0.0313
      8 C          -7.5173    3.0994   -3.9413 C.3     1  LIG11      -0.0234
      9 O         -10.1309    3.6564   -2.9283 O.co2   1  LIG11      -0.5493
     10 O         -11.4852    1.8279   -2.7547 O.co2   1  LIG11      -0.5493
     11 C          -6.9773    3.1200   -1.4699 C.3     1  LIG11       0.0465
     12 C          -8.9466   -1.1533   -1.6694 C.3     1  LIG11      -0.0298
     13 C          -8.7296    1.2533   -7.0237 C.ar    1  LIG11      -0.0122
     14 C          -6.7831    0.6861   -5.7080 C.ar    1  LIG11      -0.0124
     15 C          -5.6369    3.8607   -1.6034 C.2     1  LIG11       0.2608
     16 C          -8.1184   -2.4028   -1.2191 C.3     1  LIG11      -0.0479
     17 C          -9.9405   -1.6452   -2.7422 C.3     1  LIG11      -0.0596
     18 C          -9.7548   -0.6040   -0.4808 C.3     1  LIG11      -0.0596
     19 C          -8.2342    0.4286   -8.0145 C.ar    1  LIG11       0.1702
     20 C          -6.3127   -0.1777   -6.7132 C.ar    1  LIG11       0.1656
     21 N          -5.2530    4.7354   -0.5955 N.am    1  LIG11      -0.2971
     22 O          -4.9351    3.6537   -2.5983 O.2     1  LIG11      -0.2697
     23 C          -7.2269   -2.2140    0.0166 C.3     1  LIG11      -0.0554
     24 C          -7.0576   -0.2735   -7.8729 C.ar    1  LIG11       0.2075
     25 O          -8.8322    0.2223   -9.2198 O.3     1  LIG11      -0.4525
     26 O          -5.1453   -0.8142   -6.4033 O.3     1  LIG11      -0.4913
     27 C          -5.9613    4.9122    0.6812 C.3     1  LIG11       0.0148
     28 C          -4.0648    5.5650   -0.8331 C.3     1  LIG11       0.0148
     29 C          -6.4718   -3.4922    0.3542 C.3     1  LIG11      -0.0653
     30 O          -6.7803   -1.0061   -8.9878 O.3     1  LIG11      -0.4489
     31 C          -7.8849   -0.6599   -9.8448 C.3     1  LIG11       0.2334
     32 C          -4.7375   -1.8658   -7.2704 C.3     1  LIG11       0.0790
     33 C          -5.0918    4.5455    1.8870 C.3     1  LIG11      -0.0374
     34 C          -2.7511    4.7968   -0.6615 C.3     1  LIG11      -0.0374
     35 C          -5.8744    4.6107    3.1976 C.3     1  LIG11      -0.0545
     36 C          -1.5469    5.7173   -0.8574 C.3     1  LIG11      -0.0545
     37 C          -4.9688    4.3538    4.3930 C.3     1  LIG11      -0.0652
     38 C          -0.2384    4.9497   -0.7594 C.3     1  LIG11      -0.0652
@<TRIPOS>BOND
     1     1     2    1
     2     1     3    1
     3     1     4    1
     4     2     5    1
     5     2     6    1
     6     3     8    1
     7     3     7    1
     8     4    10   ar
     9     4     9   ar
    10     5     8    1
    11     5    11    1
    12     6    12    1
    13     7    14   ar
    14     7    13   ar
    15    11    15    1
    16    12    18    1
    17    12    17    1
    18    12    16    1
    19    13    19   ar
    20    14    20   ar
    21    15    22    2
    22    15    21   am
    23    16    23    1
    24    19    25    1
    25    19    24   ar
    26    20    24   ar
    27    20    26    1
    28    21    28    1
    29    21    27    1
    30    23    29    1
    31    24    30    1
    32    25    31    1
    33    26    32    1
    34    27    33    1
    35    28    34    1
    36    30    31    1
    37    33    35    1
    38    34    36    1
    39    35    37    1
    40    36    38    1
@<TRIPOS>MOLECULE
../ET1/ET1_17-21_50CONFORMERS.pdb
 47 48 0 0 0
SMALL
GASTEIGER

@<TRIPOS>ATOM
      1  N         -4.5950    0.2540   -1.3750 N.3    17  LEU17      -0.1231
      2  CA        -5.8680   -0.4060   -1.6470 C.3    17  LEU17       0.1693
      3  CB        -6.1150   -1.4830   -0.5580 C.3    17  LEU17       0.0284
      4  CG        -7.4710   -2.1900   -0.5490 C.3    17  LEU17       0.0019
      5  CD1       -7.5650   -3.1290   -1.8160 C.3    17  LEU17       0.0001
      6  CD2       -7.6340   -3.0650    0.7330 C.3    17  LEU17       0.0001
      7  C         -6.9860    0.6360   -1.6690 C.2    17  LEU17       0.2592
      8  O         -7.6340    0.7430   -2.7370 O.2    17  LEU17      -0.2718
      9  N         -7.2970    1.3320   -0.5610 N.am   18  ASP18      -0.1960
     10  CA        -8.4790    2.2020   -0.3870 C.3    18  ASP18       0.1840
     11  CB        -9.5330    1.3370    0.3720 C.3    18  ASP18       0.1450
     12  CG       -10.8210    2.1240    0.3740 C.2    18  ASP18       0.3671
     13  OD1      -11.4060    2.2040   -0.7190 O.co2  18  ASP18      -0.2456
     14  OD2      -11.1770    2.7140    1.4220 O.co2  18  ASP18      -0.2456
     15  C         -8.0910    3.5840    0.1800 C.2    18  ASP18       0.2622
     16  O         -8.7800    4.5590   -0.1210 O.2    18  ASP18      -0.2715
     17  N         -7.0700    3.6540    1.0290 N.am   19  ILE19      -0.1963
     18  CA        -6.3960    4.9150    1.3660 C.3    19  ILE19       0.1727
     19  CB        -5.4130    4.6360    2.5530 C.3    19  ILE19       0.0290
     20  CG2       -4.5050    5.7520    2.8080 C.3    19  ILE19       0.0023
     21  CG1       -6.1410    4.2180    3.8750 C.3    19  ILE19       0.0022
     22  CD1       -5.2560    3.8010    5.0260 C.3    19  ILE19       0.0001
     23  C         -5.6610    5.3990    0.0870 C.2    19  ILE19       0.2616
     24  O         -5.9120    6.4560   -0.4040 O.2    19  ILE19      -0.2715
     25  N         -4.7450    4.5400   -0.4380 N.am   20  ILE20      -0.1963
     26  CA        -4.0060    4.7800   -1.6650 C.3    20  ILE20       0.1727
     27  CB        -2.5150    4.5890   -1.3610 C.3    20  ILE20       0.0290
     28  CG2       -1.7230    4.4030   -2.6660 C.3    20  ILE20       0.0023
     29  CG1       -1.9230    5.6330   -0.4200 C.3    20  ILE20       0.0022
     30  CD1       -0.4510    5.5540   -0.0730 C.3    20  ILE20       0.0001
     31  C         -4.6610    4.0040   -2.7590 C.2    20  ILE20       0.2617
     32  O         -4.6370    2.7640   -2.7060 O.2    20  ILE20      -0.2715
     33  N         -5.1840    4.7980   -3.7140 N.am   21  TRP21      -0.1941
     34  CA        -5.9280    4.3140   -4.9110 C.3    21  TRP21       0.1982
     35  CB        -7.4330    4.0930   -4.5870 C.3    21  TRP21       0.0394
     36  CG        -8.2260    3.2200   -5.4930 C.3    21  TRP21       0.0475
     37  CD1       -9.3870    3.6160   -6.0840 C.3    21  TRP21       0.1166
     38  NE1       -9.8600    2.5750   -6.9160 N.pl3  21  TRP21      -0.2376
     39  CE2       -8.9610    1.5660   -6.9710 C.ar   21  TRP21       0.0614
     40  CZ2       -8.8830    0.4700   -7.8450 C.ar   21  TRP21       0.0158
     41  CH2       -7.7910   -0.4630   -7.6930 C.ar   21  TRP21       0.0013
     42  CZ3       -6.8610   -0.2860   -6.7140 C.ar   21  TRP21      -0.0002
     43  CE3       -6.8910    0.8700   -5.9240 C.ar   21  TRP21      -0.0030
     44  CD2       -7.9350    1.8700   -5.9810 C.ar   21  TRP21      -0.0059
     45  C         -5.7590    5.3050   -6.0770 C.2    21  TRP21       0.3842
     46  O         -5.6460    4.8080   -7.2450 O.co2  21  TRP21      -0.2437
     47  OXT       -5.7750    6.5610   -5.9010 O.co2  21  TRP21      -0.2437
@<TRIPOS>BOND
     1    40    41   ar
     2    40    39   ar
     3    41    42   ar
     4    39    38    1
     5    39    44   ar
     6    42    43   ar
     7    38    37    1
     8    43    44   ar
     9    44    36    1
    10    37    36    1
    11    36    35    1
    12    47    45   ar
    13     5     4    1
    14    35    34    1
    15    45    34    1
    16    45    46   ar
    17    34    33    1
    18     8     7    2
    19     4     6    1
    20     4     3    1
    21     2     3    1
    22     2     1    1
    23     2     7    1
    24     7     9   am
    25    33    31   am
    26    32    31    2
    27    31    26    1
    28     9    10    1
    29    10    11    1
    30    10    15    1
    31    26    27    1
    32    26    25    1
    33    11    12    1
    34    13    12   ar
    35    27    29    1
    36    27    28    1
    37    29    30    1
    38    16    15    2
    39    15    17   am
    40    12    14   ar
    41    25    23   am
    42    17    18    1
    43    23    24    2
    44    23    18    1
    45    18    19    1
    46    19    21    1
    47    19    20    1
    48    21    22    1
