@<TRIPOS>MOLECULE
../ET1/ET1_17-21_50CONFORMERS_NOBACKBONE.pdb
 26 23 0 0 0
SMALL
GASTEIGER

@<TRIPOS>ATOM
      1  CB        -6.4530   -2.7120   -1.5090 C.3    17  LEU17       0.0000
      2  CG        -7.8520   -3.4210   -1.6270 C.3    17  LEU17       0.0000
      3  CD1       -8.2420   -3.4830   -3.1120 C.3    17  LEU17       0.0000
      4  CD2       -7.8840   -4.9360   -1.2500 C.3    17  LEU17       0.0000
      5  CB        -9.3430    0.2160    1.1530 C.3    18  ASP18       0.1258
      6  CG       -10.6890    0.7860    1.3810 C.2    18  ASP18       0.3654
      7  OD1      -11.0270    1.1820    2.4820 O.co2  18  ASP18      -0.2456
      8  OD2      -11.4830    0.7020    0.3740 O.co2  18  ASP18      -0.2456
      9  CB        -5.5510    3.1290    3.3680 C.3    19  ILE19       0.0000
     10  CG2       -5.3620    4.4080    4.2770 C.3    19  ILE19       0.0000
     11  CG1       -5.9730    1.9220    4.1740 C.3    19  ILE19       0.0000
     12  CD1       -7.2610    2.0620    4.9600 C.3    19  ILE19       0.0000
     13  CB        -2.6820    5.8720    0.2320 C.3    20  ILE20       0.0000
     14  CG2       -2.6210    6.4220    1.7090 C.3    20  ILE20       0.0000
     15  CG1       -1.6860    4.7460    0.0490 C.3    20  ILE20       0.0000
     16  CD1       -0.2380    5.0860    0.2240 C.3    20  ILE20       0.0000
     17  CB        -5.8890    6.4760   -4.1350 C.3    21  TRP21       0.0066
     18  CG        -6.9060    5.8100   -3.3100 C.3    21  TRP21       0.0452
     19  CD1       -7.1820    6.1250   -2.0440 C.3    21  TRP21       0.1165
     20  NE1       -8.1780    5.3590   -1.5660 N.pl3  21  TRP21      -0.2376
     21  CE2       -8.7010    4.5190   -2.5190 C.ar   21  TRP21       0.0614
     22  CZ2       -9.7180    3.5930   -2.5470 C.ar   21  TRP21       0.0158
     23  CH2       -9.8630    2.7900   -3.6390 C.ar   21  TRP21       0.0013
     24  CZ3       -9.0980    3.0010   -4.7700 C.ar   21  TRP21      -0.0002
     25  CE3       -8.1680    4.0800   -4.8000 C.ar   21  TRP21      -0.0030
     26  CD2       -7.9000    4.8450   -3.6530 C.ar   21  TRP21      -0.0059
@<TRIPOS>BOND
     1    22    23   ar
     2    22    21   ar
     3    23    24   ar
     4    21    20    1
     5    21    26   ar
     6    24    25   ar
     7    20    19    1
     8    25    26   ar
     9    26    18    1
    10    19    18    1
    11    18    17    1
    12     3     2    1
    13     2     4    1
    14     2     1    1
    15     5     6    1
    16     7     6   ar
    17    13    15    1
    18    13    14    1
    19    15    16    1
    20     6     8   ar
    21     9    11    1
    22     9    10    1
    23    11    12    1
@<TRIPOS>MOLECULE
11672244
 53 58 0 0 0
SMALL
GASTEIGER

@<TRIPOS>ATOM
      1 O          -5.2734    5.2144   -0.0467 O.3     1  LIG11      -0.4607
      2 O           0.4046    6.0719   -4.3888 O.2     1  LIG11      -0.2968
      3 O          -3.4340    3.7622    5.6000 O.co2   1  LIG11      -0.5492
      4 O          -4.2298    5.6243    6.6241 O.co2   1  LIG11      -0.5492
      5 O          -4.6584    6.8222   -1.5763 O.2     1  LIG11      -0.2456
      6 O          -9.9993    5.3908   -5.7709 O.3     1  LIG11      -0.5067
      7 O          -9.1325    2.8722    0.0405 O.2     1  LIG11      -0.2705
      8 O          -8.7308   -2.1021    0.9219 O.co2   1  LIG11      -0.5452
      9 O         -10.6230   -1.6574    2.1259 O.co2   1  LIG11      -0.5452
     10 N          -8.5022    1.7028   -1.8836 N.am    1  LIG11      -0.2815
     11 C          -2.4399    5.9483    1.5586 C.3     1  LIG11      -0.0160
     12 C          -2.0984    4.8538    0.4825 C.3     1  LIG11      -0.0256
     13 C          -3.9648    5.7009    2.1118 C.3     1  LIG11       0.0318
     14 C          -0.8167    5.1007   -0.4418 C.3     1  LIG11      -0.0243
     15 C          -0.9264    6.5577   -1.0137 C.3     1  LIG11      -0.0235
     16 C          -2.2857    7.3681    0.9531 C.3     1  LIG11      -0.0461
     17 C          -4.1600    4.2171    2.5060 C.2     1  LIG11      -0.0596
     18 C          -5.3521    3.9016    3.4360 C.3     1  LIG11      -0.0080
     19 C          -1.0121    7.5813    0.1366 C.3     1  LIG11      -0.0483
     20 C          -4.2132    6.6332    3.3525 C.3     1  LIG11      -0.0392
     21 C          -2.1794    3.4475    1.1095 C.3     1  LIG11      -0.0306
     22 C          -5.4034    4.8222    4.6825 C.3     1  LIG11       0.0167
     23 C           0.0764    6.9509   -2.1494 C.3     1  LIG11       0.0267
     24 C          -0.8960    4.1303   -1.6562 C.3     1  LIG11      -0.0404
     25 C          -5.4444    6.2884    4.1956 C.3     1  LIG11      -0.0408
     26 C          -1.4338    5.8540    2.7527 C.3     1  LIG11      -0.0584
     27 C          -3.3387    3.2550    2.0372 C.2     1  LIG11      -0.0835
     28 C          -5.0991    6.0851    1.0827 C.3     1  LIG11       0.1025
     29 C           0.5212    4.8308    0.2886 C.3     1  LIG11      -0.0590
     30 C          -5.5635    2.4074    3.7967 C.3     1  LIG11      -0.0405
     31 C          -6.6926    4.5433    5.4946 C.3     1  LIG11      -0.0412
     32 C           0.1423    4.3934   -2.7372 C.3     1  LIG11       0.0069
     33 C          -6.8231    2.1290    4.6498 C.3     1  LIG11      -0.0343
     34 C           0.1655    5.8298   -3.2002 C.2     1  LIG11       0.1392
     35 C          -6.8581    3.0694    5.8681 C.3     1  LIG11      -0.0470
     36 C           1.4988    7.2759   -1.6706 C.3     1  LIG11      -0.0528
     37 C          -0.4590    8.2106   -2.8824 C.3     1  LIG11      -0.0528
     38 C          -4.2432    4.7208    5.7327 C.2     1  LIG11       0.0485
     39 C          -6.7771    0.6692    5.1440 C.3     1  LIG11      -0.0598
     40 C          -8.0996    2.2918    3.8014 C.3     1  LIG11      -0.0598
     41 C          -5.2505    5.7981   -1.2619 C.2     1  LIG11       0.3320
     42 C          -6.1227    5.1023   -2.2278 C.2     1  LIG11       0.0231
     43 C          -7.2480    4.4674   -1.8573 C.2     1  LIG11      -0.0460
     44 C          -8.2574    4.0005   -2.8274 C.ar    1  LIG11      -0.0001
     45 C          -8.7977    2.6989   -2.8386 C.ar    1  LIG11       0.0411
     46 C          -8.6841    4.9107   -3.8172 C.ar    1  LIG11      -0.0113
     47 C          -9.6588    2.3094   -3.8799 C.ar    1  LIG11      -0.0364
     48 C          -9.5766    4.5175   -4.8116 C.ar    1  LIG11       0.1175
     49 C         -10.0567    3.2198   -4.8578 C.ar    1  LIG11      -0.0184
     50 C          -8.7441    1.8612   -0.5262 C.2     1  LIG11       0.2411
     51 C          -8.6399    0.5440    0.1458 C.2     1  LIG11       0.0021
     52 C          -9.6584    0.0740    0.8792 C.2     1  LIG11      -0.0344
     53 C          -9.6489   -1.3636    1.3783 C.2     1  LIG11       0.0647
@<TRIPOS>BOND
     1     1    41    1
     2     1    28    1
     3     2    34    2
     4     3    38   ar
     5     4    38   ar
     6     5    41    2
     7     6    48    1
     8     7    50    2
     9     8    53   ar
    10     9    53   ar
    11    10    45    1
    12    10    50   am
    13    11    16    1
    14    11    12    1
    15    11    26    1
    16    11    13    1
    17    12    14    1
    18    13    20    1
    19    13    17    1
    20    13    28    1
    21    14    15    1
    22    14    24    1
    23    14    29    1
    24    15    19    1
    25    15    23    1
    26    16    19    1
    27    17    18    1
    28    17    27    2
    29    18    30    1
    30    18    22    1
    31    20    25    1
    32    21    27    1
    33    21    12    1
    34    22    31    1
    35    22    25    1
    36    22    38    1
    37    23    34    1
    38    23    37    1
    39    23    36    1
    40    24    32    1
    41    30    33    1
    42    31    35    1
    43    32    34    1
    44    33    35    1
    45    33    40    1
    46    33    39    1
    47    41    42    1
    48    42    43    2
    49    43    44    1
    50    44    46   ar
    51    44    45   ar
    52    45    47   ar
    53    46    48   ar
    54    47    49   ar
    55    48    49   ar
    56    50    51    1
    57    51    52    2
    58    52    53    1
@<TRIPOS>MOLECULE
../ET1/ET1_17-21_50CONFORMERS.pdb
 47 48 0 0 0
SMALL
GASTEIGER

@<TRIPOS>ATOM
      1  N         -5.0750   -0.6840   -1.4600 N.3    17  LEU17      -0.1231
      2  CA        -6.3230   -1.2690   -2.0240 C.3    17  LEU17       0.1693
      3  CB        -6.4530   -2.7120   -1.5090 C.3    17  LEU17       0.0284
      4  CG        -7.8520   -3.4210   -1.6270 C.3    17  LEU17       0.0019
      5  CD1       -8.2420   -3.4830   -3.1120 C.3    17  LEU17       0.0001
      6  CD2       -7.8840   -4.9360   -1.2500 C.3    17  LEU17       0.0001
      7  C         -7.5170   -0.4350   -1.5600 C.2    17  LEU17       0.2592
      8  O         -8.5840   -0.5170   -2.1010 O.2    17  LEU17      -0.2718
      9  N         -7.4270    0.2920   -0.4370 N.am   18  ASP18      -0.1960
     10  CA        -8.5550    1.0260    0.1610 C.3    18  ASP18       0.1840
     11  CB        -9.3430    0.2160    1.1530 C.3    18  ASP18       0.1450
     12  CG       -10.6890    0.7860    1.3810 C.2    18  ASP18       0.3671
     13  OD1      -11.0270    1.1820    2.4820 O.co2  18  ASP18      -0.2456
     14  OD2      -11.4830    0.7020    0.3740 O.co2  18  ASP18      -0.2456
     15  C         -8.0750    2.3090    0.8050 C.2    18  ASP18       0.2622
     16  O         -8.8600    3.2300    0.7900 O.2    18  ASP18      -0.2715
     17  N         -6.8520    2.3840    1.3680 N.am   19  ILE19      -0.1963
     18  CA        -6.4810    3.5140    2.1970 C.3    19  ILE19       0.1727
     19  CB        -5.5510    3.1290    3.3680 C.3    19  ILE19       0.0290
     20  CG2       -5.3620    4.4080    4.2770 C.3    19  ILE19       0.0023
     21  CG1       -5.9730    1.9220    4.1740 C.3    19  ILE19       0.0022
     22  CD1       -7.2610    2.0620    4.9600 C.3    19  ILE19       0.0001
     23  C         -5.9380    4.6850    1.2940 C.2    19  ILE19       0.2616
     24  O         -6.6070    5.7010    1.1620 O.2    19  ILE19      -0.2715
     25  N         -4.7480    4.5690    0.7150 N.am   20  ILE20      -0.1963
     26  CA        -4.1410    5.5460   -0.2020 C.3    20  ILE20       0.1727
     27  CB        -2.6820    5.8720    0.2320 C.3    20  ILE20       0.0290
     28  CG2       -2.6210    6.4220    1.7090 C.3    20  ILE20       0.0023
     29  CG1       -1.6860    4.7460    0.0490 C.3    20  ILE20       0.0022
     30  CD1       -0.2380    5.0860    0.2240 C.3    20  ILE20       0.0001
     31  C         -4.2210    5.0480   -1.6510 C.2    20  ILE20       0.2617
     32  O         -4.4240    3.8730   -1.9550 O.2    20  ILE20      -0.2715
     33  N         -4.1680    6.0200   -2.6190 N.am   21  TRP21      -0.1941
     34  CA        -4.4860    5.9330   -4.0290 C.3    21  TRP21       0.1982
     35  CB        -5.8890    6.4760   -4.1350 C.3    21  TRP21       0.0394
     36  CG        -6.9060    5.8100   -3.3100 C.3    21  TRP21       0.0475
     37  CD1       -7.1820    6.1250   -2.0440 C.3    21  TRP21       0.1166
     38  NE1       -8.1780    5.3590   -1.5660 N.pl3  21  TRP21      -0.2376
     39  CE2       -8.7010    4.5190   -2.5190 C.ar   21  TRP21       0.0614
     40  CZ2       -9.7180    3.5930   -2.5470 C.ar   21  TRP21       0.0158
     41  CH2       -9.8630    2.7900   -3.6390 C.ar   21  TRP21       0.0013
     42  CZ3       -9.0980    3.0010   -4.7700 C.ar   21  TRP21      -0.0002
     43  CE3       -8.1680    4.0800   -4.8000 C.ar   21  TRP21      -0.0030
     44  CD2       -7.9000    4.8450   -3.6530 C.ar   21  TRP21      -0.0059
     45  C         -3.4690    6.6300   -4.9650 C.2    21  TRP21       0.3842
     46  O         -3.0990    7.7710   -4.6320 O.co2  21  TRP21      -0.2437
     47  OXT       -3.1460    6.1810   -6.1060 O.co2  21  TRP21      -0.2437
@<TRIPOS>BOND
     1    40    41   ar
     2    40    39   ar
     3    41    42   ar
     4    39    38    1
     5    39    44   ar
     6    42    43   ar
     7    38    37    1
     8    43    44   ar
     9    44    36    1
    10    37    36    1
    11    36    35    1
    12    47    45   ar
    13     5     4    1
    14    35    34    1
    15    45    34    1
    16    45    46   ar
    17    34    33    1
    18     8     7    2
    19     4     6    1
    20     4     3    1
    21     2     3    1
    22     2     1    1
    23     2     7    1
    24     7     9   am
    25    33    31   am
    26    32    31    2
    27    31    26    1
    28     9    10    1
    29    10    11    1
    30    10    15    1
    31    26    27    1
    32    26    25    1
    33    11    12    1
    34    13    12   ar
    35    27    29    1
    36    27    28    1
    37    29    30    1
    38    16    15    2
    39    15    17   am
    40    12    14   ar
    41    25    23   am
    42    17    18    1
    43    23    24    2
    44    23    18    1
    45    18    19    1
    46    19    21    1
    47    19    20    1
    48    21    22    1
