@<TRIPOS>MOLECULE
../ET1/ET1_17-21_50CONFORMERS_NOBACKBONE.pdb
 26 23 0 0 0
SMALL
GASTEIGER

@<TRIPOS>ATOM
      1  CB        -5.4530   -1.5720   -1.0690 C.3    17  LEU17       0.0000
      2  CG        -6.6970   -2.4780   -1.0330 C.3    17  LEU17       0.0000
      3  CD1       -6.9020   -3.5380   -2.1700 C.3    17  LEU17       0.0000
      4  CD2       -6.6500   -3.2760    0.2870 C.3    17  LEU17       0.0000
      5  CB        -8.9870    1.1020   -0.0360 C.3    18  ASP18       0.1258
      6  CG       -10.3760    1.8060    0.1000 C.2    18  ASP18       0.3654
      7  OD1      -11.2340    1.4710   -0.7260 O.co2  18  ASP18      -0.2456
      8  OD2      -10.5620    2.7020    1.0180 O.co2  18  ASP18      -0.2456
      9  CB        -5.7530    3.4900    3.1650 C.3    19  ILE19       0.0000
     10  CG2       -4.9520    4.5830    3.9180 C.3    19  ILE19       0.0000
     11  CG1       -6.8640    2.8460    4.0270 C.3    19  ILE19       0.0000
     12  CD1       -6.2950    2.0740    5.2450 C.3    19  ILE19       0.0000
     13  CB        -2.6100    5.6290   -0.6190 C.3    20  ILE20       0.0000
     14  CG2       -2.4720    6.6900    0.4690 C.3    20  ILE20       0.0000
     15  CG1       -1.6500    4.4070   -0.2650 C.3    20  ILE20       0.0000
     16  CD1       -0.1570    4.7470    0.0440 C.3    20  ILE20       0.0000
     17  CB        -6.1500    3.9150   -4.7040 C.3    21  TRP21       0.0066
     18  CG        -6.5780    2.9800   -5.8100 C.3    21  TRP21       0.0452
     19  CD1       -7.4550    3.2610   -6.7780 C.3    21  TRP21       0.1165
     20  NE1       -7.6110    2.2010   -7.6480 N.pl3  21  TRP21      -0.2376
     21  CE2       -6.8730    1.0990   -7.2020 C.ar   21  TRP21       0.0614
     22  CZ2       -6.8030   -0.2390   -7.6200 C.ar   21  TRP21       0.0158
     23  CH2       -5.9830   -1.1580   -6.9260 C.ar   21  TRP21       0.0013
     24  CZ3       -5.3220   -0.6620   -5.8020 C.ar   21  TRP21      -0.0002
     25  CE3       -5.2770    0.6770   -5.5110 C.ar   21  TRP21      -0.0030
     26  CD2       -6.0860    1.6060   -6.1130 C.ar   21  TRP21      -0.0059
@<TRIPOS>BOND
     1    22    23   ar
     2    22    21   ar
     3    23    24   ar
     4    21    20    1
     5    21    26   ar
     6    24    25   ar
     7    20    19    1
     8    25    26   ar
     9    26    18    1
    10    19    18    1
    11    18    17    1
    12     3     2    1
    13     2     4    1
    14     2     1    1
    15     5     6    1
    16     7     6   ar
    17    13    15    1
    18    13    14    1
    19    15    16    1
    20     6     8   ar
    21     9    11    1
    22     9    10    1
    23    11    12    1
@<TRIPOS>MOLECULE
16004692
 32 34 0 0 0
SMALL
GASTEIGER

@<TRIPOS>ATOM
      1 BR         -7.8313   -1.6051   -9.2674 Br      1  LIG11      -0.0503
      2 BR          4.3323    2.8682   -2.4524 Br      1  LIG11      -0.0472
      3 S          -7.1238    1.3043   -2.2347 S.O2    1  LIG11       0.1104
      4 O          -2.5577   -0.2392   -5.2878 O.3     1  LIG11      -0.4724
      5 O          -6.6821    1.9568   -1.0241 O.2     1  LIG11      -0.1381
      6 O          -8.5263    1.1613   -2.5335 O.2     1  LIG11      -0.1381
      7 O           0.8491    0.3195   -6.5418 O.3     1  LIG11      -0.4590
      8 N          -6.4028   -0.2140   -2.2467 N.3     1  LIG11      -0.1771
      9 N          -6.4060    2.0714   -3.5423 N.pl3   1  LIG11      -0.1889
     10 N          -4.2829    2.5361   -2.8335 N.ar    1  LIG11      -0.2186
     11 N          -2.3788    1.3588   -3.5988 N.ar    1  LIG11      -0.2008
     12 N           2.8463    0.4206   -5.4353 N.ar    1  LIG11      -0.2022
     13 N           1.1261    1.9885   -4.9100 N.ar    1  LIG11      -0.2022
     14 C          -7.0448   -1.1929   -1.3382 C.3     1  LIG11       0.0185
     15 C          -4.5313    0.9109   -4.6378 C.ar    1  LIG11       0.0848
     16 C          -5.0155    1.8409   -3.7175 C.ar    1  LIG11       0.1532
     17 C          -6.2310   -2.4853   -1.3709 C.3     1  LIG11      -0.0416
     18 C          -5.3626    0.2702   -5.6974 C.ar    1  LIG11      -0.0094
     19 C          -3.1592    0.7117   -4.4901 C.ar    1  LIG11       0.2276
     20 C          -6.6499   -3.4381   -0.2643 C.3     1  LIG11      -0.0641
     21 C          -5.1568   -1.0562   -6.1254 C.ar    1  LIG11      -0.0527
     22 C          -6.3688    0.9952   -6.3703 C.ar    1  LIG11      -0.0527
     23 C          -1.1329   -0.3086   -5.2544 C.3     1  LIG11       0.1252
     24 C          -5.8785   -1.6120   -7.1910 C.ar    1  LIG11      -0.0472
     25 C          -7.1201    0.4353   -7.4116 C.ar    1  LIG11      -0.0472
     26 C          -2.9811    2.2602   -2.8243 C.ar    1  LIG11       0.1219
     27 C          -0.5501    0.5391   -6.3828 C.3     1  LIG11       0.1267
     28 C          -6.8589   -0.8627   -7.8281 C.ar    1  LIG11       0.0179
     29 C           1.6212    0.9427   -5.5916 C.ar    1  LIG11       0.3180
     30 C           3.6251    1.0076   -4.5020 C.ar    1  LIG11       0.0483
     31 C           1.9491    2.5393   -3.9926 C.ar    1  LIG11       0.0483
     32 C           3.2221    2.0818   -3.7435 C.ar    1  LIG11       0.0543
@<TRIPOS>BOND
     1     1    28    1
     2     2    32    1
     3     3     5    2
     4     3     6    2
     5     3     8    1
     6     3     9    1
     7     4    19    1
     8     4    23    1
     9     7    27    1
    10     7    29    1
    11     8    14    1
    12     9    16    1
    13    10    16   ar
    14    10    26   ar
    15    11    19   ar
    16    11    26   ar
    17    12    29   ar
    18    12    30   ar
    19    13    29   ar
    20    13    31   ar
    21    14    17    1
    22    15    16   ar
    23    15    18    1
    24    15    19   ar
    25    17    20    1
    26    18    21   ar
    27    18    22   ar
    28    21    24   ar
    29    22    25   ar
    30    23    27    1
    31    24    28   ar
    32    25    28   ar
    33    30    32   ar
    34    31    32   ar
@<TRIPOS>MOLECULE
../ET1/ET1_17-21_50CONFORMERS.pdb
 47 48 0 0 0
SMALL
GASTEIGER

@<TRIPOS>ATOM
      1  N         -4.1840    0.1700   -2.1080 N.3    17  LEU17      -0.1231
      2  CA        -5.4310   -0.5590   -2.2130 C.3    17  LEU17       0.1693
      3  CB        -5.4530   -1.5720   -1.0690 C.3    17  LEU17       0.0284
      4  CG        -6.6970   -2.4780   -1.0330 C.3    17  LEU17       0.0019
      5  CD1       -6.9020   -3.5380   -2.1700 C.3    17  LEU17       0.0001
      6  CD2       -6.6500   -3.2760    0.2870 C.3    17  LEU17       0.0001
      7  C         -6.6870    0.4050   -2.2250 C.2    17  LEU17       0.2592
      8  O         -7.4180    0.4050   -3.2490 O.2    17  LEU17      -0.2718
      9  N         -6.8100    1.2430   -1.2130 N.am   18  ASP18      -0.1960
     10  CA        -8.0140    1.9860   -0.8630 C.3    18  ASP18       0.1840
     11  CB        -8.9870    1.1020   -0.0360 C.3    18  ASP18       0.1450
     12  CG       -10.3760    1.8060    0.1000 C.2    18  ASP18       0.3671
     13  OD1      -11.2340    1.4710   -0.7260 O.co2  18  ASP18      -0.2456
     14  OD2      -10.5620    2.7020    1.0180 O.co2  18  ASP18      -0.2456
     15  C         -7.6500    3.2210   -0.1030 C.2    18  ASP18       0.2622
     16  O         -8.0810    4.3050   -0.4240 O.2    18  ASP18      -0.2715
     17  N         -6.9110    3.0370    1.0180 N.am   19  ILE19      -0.1963
     18  CA        -6.3970    4.0740    1.8940 C.3    19  ILE19       0.1727
     19  CB        -5.7530    3.4900    3.1650 C.3    19  ILE19       0.0290
     20  CG2       -4.9520    4.5830    3.9180 C.3    19  ILE19       0.0023
     21  CG1       -6.8640    2.8460    4.0270 C.3    19  ILE19       0.0022
     22  CD1       -6.2950    2.0740    5.2450 C.3    19  ILE19       0.0001
     23  C         -5.5560    5.0440    1.0520 C.2    19  ILE19       0.2616
     24  O         -5.7530    6.2870    1.0950 O.2    19  ILE19      -0.2715
     25  N         -4.6380    4.5410    0.2690 N.am   20  ILE20      -0.1963
     26  CA        -4.0580    5.1800   -0.8700 C.3    20  ILE20       0.1727
     27  CB        -2.6100    5.6290   -0.6190 C.3    20  ILE20       0.0290
     28  CG2       -2.4720    6.6900    0.4690 C.3    20  ILE20       0.0023
     29  CG1       -1.6500    4.4070   -0.2650 C.3    20  ILE20       0.0022
     30  CD1       -0.1570    4.7470    0.0440 C.3    20  ILE20       0.0001
     31  C         -4.1510    4.2950   -2.1670 C.2    20  ILE20       0.2617
     32  O         -4.1350    3.0460   -2.0390 O.2    20  ILE20      -0.2715
     33  N         -4.2910    4.9490   -3.3220 N.am   21  TRP21      -0.1941
     34  CA        -4.6580    4.2080   -4.6000 C.3    21  TRP21       0.1982
     35  CB        -6.1500    3.9150   -4.7040 C.3    21  TRP21       0.0394
     36  CG        -6.5780    2.9800   -5.8100 C.3    21  TRP21       0.0475
     37  CD1       -7.4550    3.2610   -6.7780 C.3    21  TRP21       0.1166
     38  NE1       -7.6110    2.2010   -7.6480 N.pl3  21  TRP21      -0.2376
     39  CE2       -6.8730    1.0990   -7.2020 C.ar   21  TRP21       0.0614
     40  CZ2       -6.8030   -0.2390   -7.6200 C.ar   21  TRP21       0.0158
     41  CH2       -5.9830   -1.1580   -6.9260 C.ar   21  TRP21       0.0013
     42  CZ3       -5.3220   -0.6620   -5.8020 C.ar   21  TRP21      -0.0002
     43  CE3       -5.2770    0.6770   -5.5110 C.ar   21  TRP21      -0.0030
     44  CD2       -6.0860    1.6060   -6.1130 C.ar   21  TRP21      -0.0059
     45  C         -4.1390    5.0410   -5.7810 C.2    21  TRP21       0.3842
     46  O         -3.4380    4.4880   -6.6810 O.co2  21  TRP21      -0.2437
     47  OXT       -4.3440    6.2890   -5.8160 O.co2  21  TRP21      -0.2437
@<TRIPOS>BOND
     1    40    41   ar
     2    40    39   ar
     3    41    42   ar
     4    39    38    1
     5    39    44   ar
     6    42    43   ar
     7    38    37    1
     8    43    44   ar
     9    44    36    1
    10    37    36    1
    11    36    35    1
    12    47    45   ar
    13     5     4    1
    14    35    34    1
    15    45    34    1
    16    45    46   ar
    17    34    33    1
    18     8     7    2
    19     4     6    1
    20     4     3    1
    21     2     3    1
    22     2     1    1
    23     2     7    1
    24     7     9   am
    25    33    31   am
    26    32    31    2
    27    31    26    1
    28     9    10    1
    29    10    11    1
    30    10    15    1
    31    26    27    1
    32    26    25    1
    33    11    12    1
    34    13    12   ar
    35    27    29    1
    36    27    28    1
    37    29    30    1
    38    16    15    2
    39    15    17   am
    40    12    14   ar
    41    25    23   am
    42    17    18    1
    43    23    24    2
    44    23    18    1
    45    18    19    1
    46    19    21    1
    47    19    20    1
    48    21    22    1
