@<TRIPOS>MOLECULE
../ET1/ET1_17-21_50CONFORMERS_NOBACKBONE.pdb
 26 23 0 0 0
SMALL
GASTEIGER

@<TRIPOS>ATOM
      1  CB        -5.6870   -2.2030   -1.4760 C.3    17  LEU17       0.0000
      2  CG        -6.5780   -3.3140   -2.1060 C.3    17  LEU17       0.0000
      3  CD1       -6.0780   -4.7200   -1.7540 C.3    17  LEU17       0.0000
      4  CD2       -7.9710   -3.2500   -1.5330 C.3    17  LEU17       0.0000
      5  CB        -9.0070   -0.0240    0.9260 C.3    18  ASP18       0.1258
      6  CG       -10.4570    0.5020    1.1290 C.2    18  ASP18       0.3654
      7  OD1      -10.7880    1.0320    2.1910 O.co2  18  ASP18      -0.2456
      8  OD2      -11.3330    0.4370    0.1930 O.co2  18  ASP18      -0.2456
      9  CB        -6.0580    3.8070    3.2370 C.3    19  ILE19       0.0000
     10  CG2       -6.1200    5.1280    4.0000 C.3    19  ILE19       0.0000
     11  CG1       -6.2000    2.5800    4.1980 C.3    19  ILE19       0.0000
     12  CD1       -7.5130    2.2700    4.8390 C.3    19  ILE19       0.0000
     13  CB        -3.0330    5.5560   -0.3510 C.3    20  ILE20       0.0000
     14  CG2       -2.9020    5.6830    1.2090 C.3    20  ILE20       0.0000
     15  CG1       -2.0950    4.4450   -0.8000 C.3    20  ILE20       0.0000
     16  CD1       -0.5490    4.7620   -0.5950 C.3    20  ILE20       0.0000
     17  CB        -6.4080    6.1050   -4.8300 C.3    21  TRP21       0.0066
     18  CG        -7.5590    5.3200   -4.2360 C.3    21  TRP21       0.0452
     19  CD1       -7.7000    5.1690   -2.9040 C.3    21  TRP21       0.1165
     20  NE1       -8.7800    4.3450   -2.6470 N.pl3  21  TRP21      -0.2376
     21  CE2       -9.3070    3.8490   -3.8480 C.ar   21  TRP21       0.0614
     22  CZ2      -10.3620    2.9460   -4.1440 C.ar   21  TRP21       0.0158
     23  CH2      -10.7140    2.7930   -5.4900 C.ar   21  TRP21       0.0013
     24  CZ3       -9.9390    3.3610   -6.4570 C.ar   21  TRP21      -0.0002
     25  CE3       -8.8750    4.2800   -6.1570 C.ar   21  TRP21      -0.0030
     26  CD2       -8.6280    4.5760   -4.8350 C.ar   21  TRP21      -0.0059
@<TRIPOS>BOND
     1    22    23   ar
     2    22    21   ar
     3    23    24   ar
     4    21    20    1
     5    21    26   ar
     6    24    25   ar
     7    20    19    1
     8    25    26   ar
     9    26    18    1
    10    19    18    1
    11    18    17    1
    12     3     2    1
    13     2     4    1
    14     2     1    1
    15     5     6    1
    16     7     6   ar
    17    13    15    1
    18    13    14    1
    19    15    16    1
    20     6     8   ar
    21     9    11    1
    22     9    10    1
    23    11    12    1
@<TRIPOS>MOLECULE
46174111
 29 32 0 0 0
SMALL
GASTEIGER

@<TRIPOS>ATOM
      1 CL         -6.1329    0.3674   -3.2273 Cl      1  LIG11      -0.0762
      2 S          -5.0473    3.1009   -0.8853 S.O2    1  LIG11       0.0758
      3 S          -5.0029    4.1654   -5.0054 S.2     1  LIG11      -0.0918
      4 O         -11.5711    2.2427   -3.7781 O.3     1  LIG11      -0.4526
      5 O         -11.6302    1.7393   -6.1357 O.3     1  LIG11      -0.4526
      6 O          -7.3511    4.8174   -1.9302 O.2     1  LIG11      -0.2911
      7 O          -4.9997    4.4088   -0.2708 O.2     1  LIG11      -0.1499
      8 O          -4.0554    2.0981   -0.5557 O.2     1  LIG11      -0.1499
      9 O          -6.9401    0.3660    0.5745 O.2     1  LIG11      -0.3364
     10 N          -6.5908    2.4576   -0.6446 N.pl3   1  LIG11      -0.1821
     11 N          -6.8737   -0.9991    0.3521 N.ar    1  LIG11      -0.0798
     12 C          -8.7650    4.4104   -4.8142 C.ar    1  LIG11      -0.0333
     13 C          -7.7772    5.3831   -4.1953 C.3     1  LIG11       0.0366
     14 C          -8.8310    4.1421   -6.2116 C.ar    1  LIG11      -0.0432
     15 C          -4.7873    3.4195   -2.5737 C.ar    1  LIG11       0.1261
     16 C          -5.6475    4.1177   -3.4117 C.ar    1  LIG11       0.0814
     17 C          -9.6943    3.7881   -3.9501 C.ar    1  LIG11      -0.0123
     18 C          -6.9212    4.7654   -3.0880 C.2     1  LIG11       0.1759
     19 C         -10.6162    2.9109   -4.4776 C.ar    1  LIG11       0.1665
     20 C         -10.6520    2.6274   -5.8165 C.ar    1  LIG11       0.1665
     21 C          -9.7764    3.2159   -6.7008 C.ar    1  LIG11      -0.0130
     22 C          -7.9090    4.7690   -7.2239 C.3     1  LIG11      -0.0393
     23 C          -3.6076    2.9595   -3.2473 C.ar    1  LIG11      -0.0273
     24 C         -12.2252    1.5177   -4.8400 C.3     1  LIG11       0.2332
     25 C          -3.6103    3.2878   -4.5799 C.ar    1  LIG11      -0.0217
     26 C          -6.6215    1.0371   -0.5679 C.ar    1  LIG11       0.2554
     27 C          -6.4187    0.1200   -1.5744 C.ar    1  LIG11       0.1262
     28 C          -6.5568   -1.1380   -0.9420 C.ar    1  LIG11       0.1009
     29 C          -6.4255   -2.4872   -1.5386 C.3     1  LIG11      -0.0176
@<TRIPOS>BOND
     1     1    27    1
     2     2    10    1
     3     2    15    1
     4     2     8    2
     5     2     7    2
     6     3    16   ar
     7     3    25   ar
     8     4    24    1
     9     4    19    1
    10     5    20    1
    11     5    24    1
    12     6    18    2
    13     9    11   ar
    14     9    26   ar
    15    10    26    1
    16    11    28   ar
    17    12    17   ar
    18    12    14   ar
    19    13    18    1
    20    13    12    1
    21    14    21   ar
    22    14    22    1
    23    15    23   ar
    24    15    16   ar
    25    16    18    1
    26    17    19   ar
    27    19    20   ar
    28    20    21   ar
    29    23    25   ar
    30    26    27   ar
    31    27    28   ar
    32    28    29    1
@<TRIPOS>MOLECULE
../ET1/ET1_17-21_50CONFORMERS.pdb
 47 48 0 0 0
SMALL
GASTEIGER

@<TRIPOS>ATOM
      1  N         -4.5760   -0.0490   -1.7820 N.3    17  LEU17      -0.1231
      2  CA        -5.7320   -0.8580   -2.1940 C.3    17  LEU17       0.1693
      3  CB        -5.6870   -2.2030   -1.4760 C.3    17  LEU17       0.0284
      4  CG        -6.5780   -3.3140   -2.1060 C.3    17  LEU17       0.0019
      5  CD1       -6.0780   -4.7200   -1.7540 C.3    17  LEU17       0.0001
      6  CD2       -7.9710   -3.2500   -1.5330 C.3    17  LEU17       0.0001
      7  C         -7.0000   -0.1040   -1.9690 C.2    17  LEU17       0.2592
      8  O         -7.7400    0.1890   -2.9100 O.2    17  LEU17      -0.2718
      9  N         -7.1900    0.2290   -0.6930 N.am   18  ASP18      -0.1960
     10  CA        -8.3770    0.8560   -0.1390 C.3    18  ASP18       0.1840
     11  CB        -9.0070   -0.0240    0.9260 C.3    18  ASP18       0.1450
     12  CG       -10.4570    0.5020    1.1290 C.2    18  ASP18       0.3671
     13  OD1      -10.7880    1.0320    2.1910 O.co2  18  ASP18      -0.2456
     14  OD2      -11.3330    0.4370    0.1930 O.co2  18  ASP18      -0.2456
     15  C         -8.1020    2.2830    0.4170 C.2    18  ASP18       0.2622
     16  O         -8.8910    3.2070    0.1090 O.2    18  ASP18      -0.2715
     17  N         -7.1560    2.4620    1.3530 N.am   19  ILE19      -0.1963
     18  CA        -6.8660    3.8040    1.9540 C.3    19  ILE19       0.1727
     19  CB        -6.0580    3.8070    3.2370 C.3    19  ILE19       0.0290
     20  CG2       -6.1200    5.1280    4.0000 C.3    19  ILE19       0.0023
     21  CG1       -6.2000    2.5800    4.1980 C.3    19  ILE19       0.0022
     22  CD1       -7.5130    2.2700    4.8390 C.3    19  ILE19       0.0001
     23  C         -6.2200    4.7890    0.8990 C.2    19  ILE19       0.2616
     24  O         -6.7400    5.9170    0.7130 O.2    19  ILE19      -0.2715
     25  N         -5.1080    4.3940    0.2390 N.am   20  ILE20      -0.1963
     26  CA        -4.4730    5.2890   -0.7870 C.3    20  ILE20       0.1727
     27  CB        -3.0330    5.5560   -0.3510 C.3    20  ILE20       0.0290
     28  CG2       -2.9020    5.6830    1.2090 C.3    20  ILE20       0.0023
     29  CG1       -2.0950    4.4450   -0.8000 C.3    20  ILE20       0.0022
     30  CD1       -0.5490    4.7620   -0.5950 C.3    20  ILE20       0.0001
     31  C         -4.6710    4.6840   -2.2420 C.2    20  ILE20       0.2617
     32  O         -4.9530    3.5160   -2.4910 O.2    20  ILE20      -0.2715
     33  N         -4.6180    5.5940   -3.2190 N.am   21  TRP21      -0.1941
     34  CA        -5.0230    5.5000   -4.6140 C.3    21  TRP21       0.1982
     35  CB        -6.4080    6.1050   -4.8300 C.3    21  TRP21       0.0394
     36  CG        -7.5590    5.3200   -4.2360 C.3    21  TRP21       0.0475
     37  CD1       -7.7000    5.1690   -2.9040 C.3    21  TRP21       0.1166
     38  NE1       -8.7800    4.3450   -2.6470 N.pl3  21  TRP21      -0.2376
     39  CE2       -9.3070    3.8490   -3.8480 C.ar   21  TRP21       0.0614
     40  CZ2      -10.3620    2.9460   -4.1440 C.ar   21  TRP21       0.0158
     41  CH2      -10.7140    2.7930   -5.4900 C.ar   21  TRP21       0.0013
     42  CZ3       -9.9390    3.3610   -6.4570 C.ar   21  TRP21      -0.0002
     43  CE3       -8.8750    4.2800   -6.1570 C.ar   21  TRP21      -0.0030
     44  CD2       -8.6280    4.5760   -4.8350 C.ar   21  TRP21      -0.0059
     45  C         -3.9680    6.1530   -5.5800 C.2    21  TRP21       0.3842
     46  O         -3.4960    7.2550   -5.2750 O.co2  21  TRP21      -0.2437
     47  OXT       -3.6110    5.4990   -6.5740 O.co2  21  TRP21      -0.2437
@<TRIPOS>BOND
     1    40    41   ar
     2    40    39   ar
     3    41    42   ar
     4    39    38    1
     5    39    44   ar
     6    42    43   ar
     7    38    37    1
     8    43    44   ar
     9    44    36    1
    10    37    36    1
    11    36    35    1
    12    47    45   ar
    13     5     4    1
    14    35    34    1
    15    45    34    1
    16    45    46   ar
    17    34    33    1
    18     8     7    2
    19     4     6    1
    20     4     3    1
    21     2     3    1
    22     2     1    1
    23     2     7    1
    24     7     9   am
    25    33    31   am
    26    32    31    2
    27    31    26    1
    28     9    10    1
    29    10    11    1
    30    10    15    1
    31    26    27    1
    32    26    25    1
    33    11    12    1
    34    13    12   ar
    35    27    29    1
    36    27    28    1
    37    29    30    1
    38    16    15    2
    39    15    17   am
    40    12    14   ar
    41    25    23   am
    42    17    18    1
    43    23    24    2
    44    23    18    1
    45    18    19    1
    46    19    21    1
    47    19    20    1
    48    21    22    1
