@<TRIPOS>MOLECULE
../ET1/ET1_17-21_50CONFORMERS_NOBACKBONE.pdb
 26 23 0 0 0
SMALL
GASTEIGER

@<TRIPOS>ATOM
      1  CB        -6.1060   -1.8910   -0.6040 C.3    17  LEU17       0.0000
      2  CG        -7.3260   -2.7700   -0.5110 C.3    17  LEU17       0.0000
      3  CD1       -7.5330   -3.5860   -1.8080 C.3    17  LEU17       0.0000
      4  CD2       -7.1750   -3.7620    0.6380 C.3    17  LEU17       0.0000
      5  CB        -9.6350    1.1900    0.6620 C.3    18  ASP18       0.1258
      6  CG       -10.7540    2.0760    1.0750 C.2    18  ASP18       0.3654
      7  OD1      -10.7090    2.5980    2.1810 O.co2  18  ASP18      -0.2456
      8  OD2      -11.7750    2.1680    0.3490 O.co2  18  ASP18      -0.2456
      9  CB        -5.6060    4.1530    3.1840 C.3    19  ILE19       0.0000
     10  CG2       -5.0710    5.4630    3.7780 C.3    19  ILE19       0.0000
     11  CG1       -6.3130    3.3110    4.2570 C.3    19  ILE19       0.0000
     12  CD1       -7.4260    3.9890    5.0080 C.3    19  ILE19       0.0000
     13  CB        -2.4570    5.3180   -0.3440 C.3    20  ILE20       0.0000
     14  CG2       -2.2540    6.0130    0.9630 C.3    20  ILE20       0.0000
     15  CG1       -1.6850    3.9000   -0.3880 C.3    20  ILE20       0.0000
     16  CD1       -0.1170    4.0540   -0.3600 C.3    20  ILE20       0.0000
     17  CB        -5.5920    5.9330   -5.0080 C.3    21  TRP21       0.0066
     18  CG        -6.7500    5.3280   -4.2680 C.3    21  TRP21       0.0452
     19  CD1       -7.2600    5.6560   -3.0690 C.3    21  TRP21       0.1165
     20  NE1       -8.2550    4.7710   -2.7510 N.pl3  21  TRP21      -0.2376
     21  CE2       -8.5230    3.9140   -3.8170 C.ar   21  TRP21       0.0614
     22  CZ2       -9.4410    2.8940   -4.0290 C.ar   21  TRP21       0.0158
     23  CH2       -9.4520    2.1750   -5.2310 C.ar   21  TRP21       0.0013
     24  CZ3       -8.7260    2.6660   -6.3270 C.ar   21  TRP21      -0.0002
     25  CE3       -7.8990    3.7620   -6.1480 C.ar   21  TRP21      -0.0030
     26  CD2       -7.6800    4.3580   -4.8730 C.ar   21  TRP21      -0.0059
@<TRIPOS>BOND
     1    22    23   ar
     2    22    21   ar
     3    23    24   ar
     4    21    20    1
     5    21    26   ar
     6    24    25   ar
     7    20    19    1
     8    25    26   ar
     9    26    18    1
    10    19    18    1
    11    18    17    1
    12     3     2    1
    13     2     4    1
    14     2     1    1
    15     5     6    1
    16     7     6   ar
    17    13    15    1
    18    13    14    1
    19    15    16    1
    20     6     8   ar
    21     9    11    1
    22     9    10    1
    23    11    12    1
@<TRIPOS>MOLECULE
2-[[2-[2-butyl-4-[(Z)-2-carboxy-3-(6-methoxy-1,3-benzodioxol-5-yl)prop-1-enyl]pyrazol-3-yl]-5-methoxyphenoxy]methyl]benzoic acid
 45 49 0 0 0
SMALL
GASTEIGER

@<TRIPOS>ATOM
      1 O          -7.6883    2.3465   -1.6528 O.3     1  LIG11      -0.4866
      2 O          -0.6569    4.4069    3.8290 O.3     1  LIG11      -0.4526
      3 O          -0.0892    3.8829    6.1133 O.3     1  LIG11      -0.4525
      4 O          -4.5603    2.1218    6.9444 O.3     1  LIG11      -0.4947
      5 O          -3.4938    2.7860   -4.0176 O.3     1  LIG11      -0.4950
      6 O          -6.2998    5.6131    4.4509 O.co2   1  LIG11      -0.5449
      7 O          -5.2731    5.8085    2.4180 O.co2   1  LIG11      -0.5449
      8 O         -11.1247    2.3223   -2.3626 O.co2   1  LIG11      -0.5446
      9 O         -10.8467    0.4534   -3.6147 O.co2   1  LIG11      -0.5446
     10 N          -6.5866   -0.1975    0.8542 N.ar    1  LIG11      -0.2630
     11 N          -7.2410   -0.3805    2.0245 N.ar    1  LIG11      -0.1785
     12 C          -6.3028    1.1305    0.5780 C.ar    1  LIG11       0.0795
     13 C          -6.1673   -1.3660    0.0933 C.3     1  LIG11       0.0422
     14 C          -5.8081   -2.6000    0.9431 C.3     1  LIG11      -0.0336
     15 C          -6.6285    1.8000    1.7469 C.ar    1  LIG11       0.0207
     16 C          -5.6349    1.6047   -0.6401 C.ar    1  LIG11       0.0425
     17 C          -6.9895   -3.5232    1.2606 C.3     1  LIG11      -0.0542
     18 C          -7.2756    0.8428    2.5522 C.ar    1  LIG11       0.0571
     19 C          -6.3788    3.1709    2.0554 C.2     1  LIG11      -0.0459
     20 C          -5.3719    2.8446    4.3896 C.3     1  LIG11       0.0029
     21 C          -6.3177    2.2440   -1.6969 C.ar    1  LIG11       0.1336
     22 C          -5.8607    3.6463    3.2092 C.2     1  LIG11      -0.0200
     23 C          -3.9461    3.1012    4.8732 C.ar    1  LIG11       0.0023
     24 C          -4.2385    1.4249   -0.7271 C.ar    1  LIG11      -0.0456
     25 C          -7.5004   -4.2684    0.0362 C.3     1  LIG11      -0.0652
     26 C          -5.5781    2.6510   -2.8105 C.ar    1  LIG11       0.0224
     27 C          -3.5778    2.7385    6.2012 C.ar    1  LIG11       0.1273
     28 C          -2.9703    3.6442    4.0134 C.ar    1  LIG11      -0.0092
     29 C          -3.5283    1.8158   -1.8618 C.ar    1  LIG11      -0.0191
     30 C          -1.7069    3.8724    4.5131 C.ar    1  LIG11       0.1667
     31 C          -4.2094    2.4037   -2.9144 C.ar    1  LIG11       0.1236
     32 C          -1.3803    3.5641    5.8103 C.ar    1  LIG11       0.1697
     33 C          -2.2865    2.9891    6.6755 C.ar    1  LIG11       0.0258
     34 C          -5.8100    5.1743    3.3708 C.2     1  LIG11       0.0680
     35 C          -8.3253    3.4975   -2.2558 C.3     1  LIG11       0.1153
     36 C           0.3270    4.4900    4.8725 C.3     1  LIG11       0.2332
     37 C          -8.6781    3.3390   -3.7346 C.ar    1  LIG11      -0.0016
     38 C          -9.6210    2.3990   -4.2017 C.ar    1  LIG11       0.0037
     39 C          -8.0040    4.1357   -4.6887 C.ar    1  LIG11      -0.0547
     40 C          -4.2514    1.7790    8.2875 C.3     1  LIG11       0.0788
     41 C          -9.7353    2.1802   -5.5931 C.ar    1  LIG11      -0.0525
     42 C          -8.1385    3.9104   -6.0610 C.ar    1  LIG11      -0.0614
     43 C          -3.9664    2.1569   -5.2105 C.3     1  LIG11       0.0788
     44 C          -8.9861    2.9095   -6.5139 C.ar    1  LIG11      -0.0611
     45 C         -10.5799    1.6575   -3.2963 C.2     1  LIG11       0.0720
@<TRIPOS>BOND
     1     1    35    1
     2     1    21    1
     3     2    36    1
     4     2    30    1
     5     3    32    1
     6     3    36    1
     7     4    27    1
     8     4    40    1
     9     5    31    1
    10     5    43    1
    11     6    34   ar
    12     7    34   ar
    13     8    45   ar
    14     9    45   ar
    15    10    11   ar
    16    10    12   ar
    17    10    13    1
    18    11    18   ar
    19    12    15   ar
    20    13    14    1
    21    14    17    1
    22    15    18   ar
    23    15    19    1
    24    16    24   ar
    25    16    21   ar
    26    16    12    1
    27    17    25    1
    28    19    22    2
    29    20    22    1
    30    20    23    1
    31    21    26   ar
    32    22    34    1
    33    23    28   ar
    34    23    27   ar
    35    24    29   ar
    36    26    31   ar
    37    27    33   ar
    38    28    30   ar
    39    29    31   ar
    40    30    32   ar
    41    32    33   ar
    42    35    37    1
    43    37    39   ar
    44    37    38   ar
    45    38    41   ar
    46    38    45    1
    47    39    42   ar
    48    41    44   ar
    49    42    44   ar
@<TRIPOS>MOLECULE
../ET1/ET1_17-21_50CONFORMERS.pdb
 47 48 0 0 0
SMALL
GASTEIGER

@<TRIPOS>ATOM
      1  N         -4.8600   -0.0130   -1.6420 N.3    17  LEU17      -0.1231
      2  CA        -6.1110   -0.7850   -1.7070 C.3    17  LEU17       0.1693
      3  CB        -6.1060   -1.8910   -0.6040 C.3    17  LEU17       0.0284
      4  CG        -7.3260   -2.7700   -0.5110 C.3    17  LEU17       0.0019
      5  CD1       -7.5330   -3.5860   -1.8080 C.3    17  LEU17       0.0001
      6  CD2       -7.1750   -3.7620    0.6380 C.3    17  LEU17       0.0001
      7  C         -7.3910    0.1230   -1.5920 C.2    17  LEU17       0.2592
      8  O         -8.2890    0.1400   -2.4470 O.2    17  LEU17      -0.2718
      9  N         -7.4630    1.0230   -0.5710 N.am   18  ASP18      -0.1960
     10  CA        -8.6060    1.9280   -0.1770 C.3    18  ASP18       0.1840
     11  CB        -9.6350    1.1900    0.6620 C.3    18  ASP18       0.1450
     12  CG       -10.7540    2.0760    1.0750 C.2    18  ASP18       0.3671
     13  OD1      -10.7090    2.5980    2.1810 O.co2  18  ASP18      -0.2456
     14  OD2      -11.7750    2.1680    0.3490 O.co2  18  ASP18      -0.2456
     15  C         -8.1270    3.2690    0.4310 C.2    18  ASP18       0.2622
     16  O         -8.4550    4.3680   -0.0320 O.2    18  ASP18      -0.2715
     17  N         -7.2680    3.2890    1.4350 N.am   19  ILE19      -0.1963
     18  CA        -6.6180    4.4780    2.0110 C.3    19  ILE19       0.1727
     19  CB        -5.6060    4.1530    3.1840 C.3    19  ILE19       0.0290
     20  CG2       -5.0710    5.4630    3.7780 C.3    19  ILE19       0.0023
     21  CG1       -6.3130    3.3110    4.2570 C.3    19  ILE19       0.0022
     22  CD1       -7.4260    3.9890    5.0080 C.3    19  ILE19       0.0001
     23  C         -5.8570    5.2320    0.9330 C.2    19  ILE19       0.2616
     24  O         -6.1630    6.4430    0.7480 O.2    19  ILE19      -0.2715
     25  N         -4.8930    4.6150    0.2110 N.am   20  ILE20      -0.1963
     26  CA        -4.0370    5.3340   -0.7450 C.3    20  ILE20       0.1727
     27  CB        -2.4570    5.3180   -0.3440 C.3    20  ILE20       0.0290
     28  CG2       -2.2540    6.0130    0.9630 C.3    20  ILE20       0.0023
     29  CG1       -1.6850    3.9000   -0.3880 C.3    20  ILE20       0.0022
     30  CD1       -0.1170    4.0540   -0.3600 C.3    20  ILE20       0.0001
     31  C         -4.2350    4.7430   -2.1630 C.2    20  ILE20       0.2617
     32  O         -4.5360    3.5640   -2.2730 O.2    20  ILE20      -0.2715
     33  N         -4.0240    5.5760   -3.2320 N.am   21  TRP21      -0.1941
     34  CA        -4.2060    5.3440   -4.6130 C.3    21  TRP21       0.1982
     35  CB        -5.5920    5.9330   -5.0080 C.3    21  TRP21       0.0394
     36  CG        -6.7500    5.3280   -4.2680 C.3    21  TRP21       0.0475
     37  CD1       -7.2600    5.6560   -3.0690 C.3    21  TRP21       0.1166
     38  NE1       -8.2550    4.7710   -2.7510 N.pl3  21  TRP21      -0.2376
     39  CE2       -8.5230    3.9140   -3.8170 C.ar   21  TRP21       0.0614
     40  CZ2       -9.4410    2.8940   -4.0290 C.ar   21  TRP21       0.0158
     41  CH2       -9.4520    2.1750   -5.2310 C.ar   21  TRP21       0.0013
     42  CZ3       -8.7260    2.6660   -6.3270 C.ar   21  TRP21      -0.0002
     43  CE3       -7.8990    3.7620   -6.1480 C.ar   21  TRP21      -0.0030
     44  CD2       -7.6800    4.3580   -4.8730 C.ar   21  TRP21      -0.0059
     45  C         -3.2090    5.9310   -5.5650 C.2    21  TRP21       0.3842
     46  O         -2.3720    6.7390   -5.0730 O.co2  21  TRP21      -0.2437
     47  OXT       -3.1210    5.4890   -6.7230 O.co2  21  TRP21      -0.2437
@<TRIPOS>BOND
     1    40    41   ar
     2    40    39   ar
     3    41    42   ar
     4    39    38    1
     5    39    44   ar
     6    42    43   ar
     7    38    37    1
     8    43    44   ar
     9    44    36    1
    10    37    36    1
    11    36    35    1
    12    47    45   ar
    13     5     4    1
    14    35    34    1
    15    45    34    1
    16    45    46   ar
    17    34    33    1
    18     8     7    2
    19     4     6    1
    20     4     3    1
    21     2     3    1
    22     2     1    1
    23     2     7    1
    24     7     9   am
    25    33    31   am
    26    32    31    2
    27    31    26    1
    28     9    10    1
    29    10    11    1
    30    10    15    1
    31    26    27    1
    32    26    25    1
    33    11    12    1
    34    13    12   ar
    35    27    29    1
    36    27    28    1
    37    29    30    1
    38    16    15    2
    39    15    17   am
    40    12    14   ar
    41    25    23   am
    42    17    18    1
    43    23    24    2
    44    23    18    1
    45    18    19    1
    46    19    21    1
    47    19    20    1
    48    21    22    1
