@<TRIPOS>MOLECULE
../ET1/ET1_17-21_50CONFORMERS_NOBACKBONE.pdb
 26 23 0 0 0
SMALL
GASTEIGER

@<TRIPOS>ATOM
      1  CB        -6.1310   -1.8090   -0.5270 C.3    17  LEU17       0.0000
      2  CG        -7.4070   -2.7000   -0.5300 C.3    17  LEU17       0.0000
      3  CD1       -7.7160   -3.1950   -1.9390 C.3    17  LEU17       0.0000
      4  CD2       -7.2270   -3.7850    0.5500 C.3    17  LEU17       0.0000
      5  CB        -9.5320    1.0750    0.8580 C.3    18  ASP18       0.1258
      6  CG       -10.7800    2.0020    0.9270 C.2    18  ASP18       0.3654
      7  OD1      -11.6450    1.9960    0.0150 O.co2  18  ASP18      -0.2456
      8  OD2      -10.9480    2.6740    1.9790 O.co2  18  ASP18      -0.2456
      9  CB        -5.5200    4.0560    3.1630 C.3    19  ILE19       0.0000
     10  CG2       -4.6340    5.2440    3.6770 C.3    19  ILE19       0.0000
     11  CG1       -6.3440    3.4570    4.3090 C.3    19  ILE19       0.0000
     12  CD1       -5.5140    2.5520    5.2940 C.3    19  ILE19       0.0000
     13  CB        -2.7570    4.7950   -1.0380 C.3    20  ILE20       0.0000
     14  CG2       -2.0870    5.2180   -2.4190 C.3    20  ILE20       0.0000
     15  CG1       -2.0630    5.5960    0.0600 C.3    20  ILE20       0.0000
     16  CD1       -0.5780    5.4070   -0.0470 C.3    20  ILE20       0.0000
     17  CB        -7.6200    3.7070   -3.9320 C.3    21  TRP21       0.0066
     18  CG        -8.3010    2.9550   -4.9610 C.3    21  TRP21       0.0452
     19  CD1       -9.5490    3.2390   -5.4270 C.3    21  TRP21       0.1165
     20  NE1       -9.9110    2.3770   -6.4370 N.pl3  21  TRP21      -0.2376
     21  CE2       -8.8950    1.4430   -6.6670 C.ar   21  TRP21       0.0614
     22  CZ2       -8.6550    0.3710   -7.5990 C.ar   21  TRP21       0.0158
     23  CH2       -7.4400   -0.3430   -7.5640 C.ar   21  TRP21       0.0013
     24  CZ3       -6.5670   -0.0430   -6.5570 C.ar   21  TRP21      -0.0002
     25  CE3       -6.7650    0.9330   -5.6460 C.ar   21  TRP21      -0.0030
     26  CD2       -7.9320    1.7440   -5.7080 C.ar   21  TRP21      -0.0059
@<TRIPOS>BOND
     1    22    23   ar
     2    22    21   ar
     3    23    24   ar
     4    21    20    1
     5    21    26   ar
     6    24    25   ar
     7    20    19    1
     8    25    26   ar
     9    26    18    1
    10    19    18    1
    11    18    17    1
    12     3     2    1
    13     2     4    1
    14     2     1    1
    15     5     6    1
    16     7     6   ar
    17    13    15    1
    18    13    14    1
    19    15    16    1
    20     6     8   ar
    21     9    11    1
    22     9    10    1
    23    11    12    1
@<TRIPOS>MOLECULE
9939443
 43 47 0 0 0
SMALL
GASTEIGER

@<TRIPOS>ATOM
      1 S          -2.1834    0.1215   -5.2205 S.O2    1  LIG11       0.0908
      2 O          -5.4314   -1.1685   -5.1377 O.3     1  LIG11      -0.4435
      3 O          -3.1307    0.3923   -6.2793 O.2     1  LIG11      -0.1484
      4 O          -0.8051   -0.2073   -5.5444 O.2     1  LIG11      -0.1484
      5 O          -7.3909   -0.7134   -2.9278 O.3     1  LIG11      -0.4715
      6 O          -6.5553   -2.3177   -7.4069 O.3     1  LIG11      -0.4914
      7 O          -6.2235   -3.6523   -2.8419 O.3     1  LIG11      -0.3917
      8 N          -2.7294   -1.1790   -4.2842 N.pl3   1  LIG11      -0.1950
      9 N          -3.3676    2.0694   -3.8341 N.ar    1  LIG11      -0.2351
     10 N          -3.3887   -0.6440   -2.1897 N.ar    1  LIG11      -0.2073
     11 N          -5.6487   -0.3217   -1.5520 N.ar    1  LIG11      -0.1899
     12 N          -2.9732    1.2872    2.4545 N.ar    1  LIG11      -0.2552
     13 N          -0.1242    1.5038    2.9278 N.ar    1  LIG11      -0.5621
     14 N           0.2864    1.0877    0.7433 N.ar    1  LIG11      -0.1535
     15 N           1.1673    1.5871    2.5889 N.ar    1  LIG11      -0.3597
     16 N           1.4566    1.3550    1.3037 N.ar    1  LIG11      -0.0878
     17 C          -2.3819    4.7945   -1.3920 C.3     1  LIG11      -0.0201
     18 C          -2.2403    3.6163   -2.3352 C.ar    1  LIG11      -0.0266
     19 C          -1.3925    4.7839   -0.2233 C.3     1  LIG11      -0.0586
     20 C          -2.2734    6.1083   -2.1691 C.3     1  LIG11      -0.0586
     21 C          -2.1484    1.5277   -4.0995 C.ar    1  LIG11       0.1969
     22 C          -1.0089    3.0293   -2.6561 C.ar    1  LIG11      -0.0535
     23 C          -3.3765    3.1007   -2.9636 C.ar    1  LIG11       0.0332
     24 C          -0.9535    1.9646   -3.5529 C.ar    1  LIG11      -0.0160
     25 C          -3.8282   -0.9136   -3.4288 C.ar    1  LIG11       0.1882
     26 C          -5.1445   -0.8747   -3.8414 C.ar    1  LIG11       0.2307
     27 C          -6.0309   -0.6642   -2.8045 C.ar    1  LIG11       0.2641
     28 C          -4.3312   -0.2934   -1.3044 C.ar    1  LIG11       0.1659
     29 C          -3.8724    0.2268   -0.0037 C.ar    1  LIG11       0.0227
     30 C          -6.3478   -0.4329   -5.8548 C.ar    1  LIG11       0.1702
     31 C          -2.5054    0.4267    0.2570 C.ar    1  LIG11      -0.0252
     32 C          -4.7705    0.5799    1.0108 C.ar    1  LIG11      -0.0328
     33 C          -7.9242   -1.9854   -3.3243 C.3     1  LIG11       0.1143
     34 C          -6.9116   -1.0629   -6.9768 C.ar    1  LIG11       0.1621
     35 C          -2.0927    0.9518    1.4789 C.ar    1  LIG11       0.0708
     36 C          -6.7400    0.8722   -5.5407 C.ar    1  LIG11      -0.0157
     37 C          -4.2829    1.0950    2.2005 C.ar    1  LIG11       0.0289
     38 C          -7.5056   -3.1665   -2.4459 C.3     1  LIG11       0.0783
     39 C          -7.9432   -0.4484   -7.6885 C.ar    1  LIG11      -0.0163
     40 C          -7.7571    1.4944   -6.2715 C.ar    1  LIG11      -0.0581
     41 C          -8.3705    0.8286   -7.3320 C.ar    1  LIG11      -0.0581
     42 C          -0.6685    1.1796    1.7382 C.ar    1  LIG11       0.0207
     43 C          -5.1584   -2.4105   -7.7008 C.3     1  LIG11       0.0790
@<TRIPOS>BOND
     1     1    21    1
     2     1     8    1
     3     1     4    2
     4     1     3    2
     5     2    26    1
     6     2    30    1
     7     5    27    1
     8     5    33    1
     9     6    34    1
    10     6    43    1
    11     7    38    1
    12     8    25    1
    13     9    23   ar
    14     9    21   ar
    15    10    25   ar
    16    10    28   ar
    17    11    27   ar
    18    11    28   ar
    19    12    37   ar
    20    12    35   ar
    21    13    15   ar
    22    13    42   ar
    23    14    42   ar
    24    14    16   ar
    25    15    16   ar
    26    17    18    1
    27    17    20    1
    28    17    19    1
    29    18    23   ar
    30    18    22   ar
    31    21    24   ar
    32    22    24   ar
    33    25    26   ar
    34    26    27   ar
    35    28    29    1
    36    29    31   ar
    37    29    32   ar
    38    30    36   ar
    39    30    34   ar
    40    31    35   ar
    41    32    37   ar
    42    33    38    1
    43    34    39   ar
    44    35    42    1
    45    36    40   ar
    46    39    41   ar
    47    40    41   ar
@<TRIPOS>MOLECULE
../ET1/ET1_17-21_50CONFORMERS.pdb
 47 48 0 0 0
SMALL
GASTEIGER

@<TRIPOS>ATOM
      1  N         -4.7730    0.0050   -1.4620 N.3    17  LEU17      -0.1231
      2  CA        -6.0920   -0.6930   -1.5710 C.3    17  LEU17       0.1693
      3  CB        -6.1310   -1.8090   -0.5270 C.3    17  LEU17       0.0284
      4  CG        -7.4070   -2.7000   -0.5300 C.3    17  LEU17       0.0019
      5  CD1       -7.7160   -3.1950   -1.9390 C.3    17  LEU17       0.0001
      6  CD2       -7.2270   -3.7850    0.5500 C.3    17  LEU17       0.0001
      7  C         -7.2220    0.3070   -1.6030 C.2    17  LEU17       0.2592
      8  O         -8.0160    0.3050   -2.5560 O.2    17  LEU17      -0.2718
      9  N         -7.4110    0.9590   -0.4240 N.am   18  ASP18      -0.1960
     10  CA        -8.5230    1.8150   -0.0260 C.3    18  ASP18       0.1840
     11  CB        -9.5320    1.0750    0.8580 C.3    18  ASP18       0.1450
     12  CG       -10.7800    2.0020    0.9270 C.2    18  ASP18       0.3671
     13  OD1      -11.6450    1.9960    0.0150 O.co2  18  ASP18      -0.2456
     14  OD2      -10.9480    2.6740    1.9790 O.co2  18  ASP18      -0.2456
     15  C         -8.1630    3.1480    0.5720 C.2    18  ASP18       0.2622
     16  O         -8.4870    4.2060    0.0570 O.2    18  ASP18      -0.2715
     17  N         -7.1580    3.1700    1.4870 N.am   19  ILE19      -0.1963
     18  CA        -6.5010    4.4100    2.0140 C.3    19  ILE19       0.1727
     19  CB        -5.5200    4.0560    3.1630 C.3    19  ILE19       0.0290
     20  CG2       -4.6340    5.2440    3.6770 C.3    19  ILE19       0.0023
     21  CG1       -6.3440    3.4570    4.3090 C.3    19  ILE19       0.0022
     22  CD1       -5.5140    2.5520    5.2940 C.3    19  ILE19       0.0001
     23  C         -5.8540    5.2020    0.9170 C.2    19  ILE19       0.2616
     24  O         -6.0890    6.3900    0.7170 O.2    19  ILE19      -0.2715
     25  N         -4.9340    4.5760    0.1200 N.am   20  ILE20      -0.1963
     26  CA        -4.3050    5.0560   -1.1210 C.3    20  ILE20       0.1727
     27  CB        -2.7570    4.7950   -1.0380 C.3    20  ILE20       0.0290
     28  CG2       -2.0870    5.2180   -2.4190 C.3    20  ILE20       0.0023
     29  CG1       -2.0630    5.5960    0.0600 C.3    20  ILE20       0.0022
     30  CD1       -0.5780    5.4070   -0.0470 C.3    20  ILE20       0.0001
     31  C         -5.0000    4.2460   -2.2800 C.2    20  ILE20       0.2617
     32  O         -4.8970    3.0140   -2.3930 O.2    20  ILE20      -0.2715
     33  N         -5.6430    4.9710   -3.2380 N.am   21  TRP21      -0.1941
     34  CA        -6.2760    4.3970   -4.3640 C.3    21  TRP21       0.1982
     35  CB        -7.6200    3.7070   -3.9320 C.3    21  TRP21       0.0394
     36  CG        -8.3010    2.9550   -4.9610 C.3    21  TRP21       0.0475
     37  CD1       -9.5490    3.2390   -5.4270 C.3    21  TRP21       0.1166
     38  NE1       -9.9110    2.3770   -6.4370 N.pl3  21  TRP21      -0.2376
     39  CE2       -8.8950    1.4430   -6.6670 C.ar   21  TRP21       0.0614
     40  CZ2       -8.6550    0.3710   -7.5990 C.ar   21  TRP21       0.0158
     41  CH2       -7.4400   -0.3430   -7.5640 C.ar   21  TRP21       0.0013
     42  CZ3       -6.5670   -0.0430   -6.5570 C.ar   21  TRP21      -0.0002
     43  CE3       -6.7650    0.9330   -5.6460 C.ar   21  TRP21      -0.0030
     44  CD2       -7.9320    1.7440   -5.7080 C.ar   21  TRP21      -0.0059
     45  C         -6.6270    5.5290   -5.4110 C.2    21  TRP21       0.3842
     46  O         -6.5990    5.2250   -6.6440 O.co2  21  TRP21      -0.2437
     47  OXT       -7.0570    6.6710   -5.0490 O.co2  21  TRP21      -0.2437
@<TRIPOS>BOND
     1    40    41   ar
     2    40    39   ar
     3    41    42   ar
     4    39    38    1
     5    39    44   ar
     6    42    43   ar
     7    38    37    1
     8    43    44   ar
     9    44    36    1
    10    37    36    1
    11    36    35    1
    12    47    45   ar
    13     5     4    1
    14    35    34    1
    15    45    34    1
    16    45    46   ar
    17    34    33    1
    18     8     7    2
    19     4     6    1
    20     4     3    1
    21     2     3    1
    22     2     1    1
    23     2     7    1
    24     7     9   am
    25    33    31   am
    26    32    31    2
    27    31    26    1
    28     9    10    1
    29    10    11    1
    30    10    15    1
    31    26    27    1
    32    26    25    1
    33    11    12    1
    34    13    12   ar
    35    27    29    1
    36    27    28    1
    37    29    30    1
    38    16    15    2
    39    15    17   am
    40    12    14   ar
    41    25    23   am
    42    17    18    1
    43    23    24    2
    44    23    18    1
    45    18    19    1
    46    19    21    1
    47    19    20    1
    48    21    22    1
