@<TRIPOS>MOLECULE
../ET1/ET1_17-21_50CONFORMERS_NOBACKBONE.pdb
 26 23 0 0 0
SMALL
GASTEIGER

@<TRIPOS>ATOM
      1  CB        -6.0020   -2.2270   -1.2310 C.3    17  LEU17       0.0000
      2  CG        -7.3710   -2.9650   -1.4330 C.3    17  LEU17       0.0000
      3  CD1       -7.5290   -3.4450   -2.9110 C.3    17  LEU17       0.0000
      4  CD2       -7.4360   -4.1570   -0.4690 C.3    17  LEU17       0.0000
      5  CB        -9.5170    0.6130    0.1180 C.3    18  ASP18       0.1258
      6  CG       -10.8430    1.4700    0.1790 C.2    18  ASP18       0.3654
      7  OD1      -11.0920    1.8770    1.3330 O.co2  18  ASP18      -0.2456
      8  OD2      -11.3930    1.8330   -0.8510 O.co2  18  ASP18      -0.2456
      9  CB        -6.1460    3.8800    2.9000 C.3    19  ILE19       0.0000
     10  CG2       -4.8240    3.1830    2.7840 C.3    19  ILE19       0.0000
     11  CG1       -5.9350    5.0790    3.7960 C.3    19  ILE19       0.0000
     12  CD1       -7.3240    5.4870    4.3970 C.3    19  ILE19       0.0000
     13  CB        -2.7820    5.5750   -0.5870 C.3    20  ILE20       0.0000
     14  CG2       -2.8140    6.5150    0.6480 C.3    20  ILE20       0.0000
     15  CG1       -2.1060    4.2440   -0.2590 C.3    20  ILE20       0.0000
     16  CD1       -0.5670    4.3010   -0.1670 C.3    20  ILE20       0.0000
     17  CB        -6.0840    4.8320   -5.2160 C.3    21  TRP21       0.0066
     18  CG        -6.1980    4.0270   -6.4950 C.3    21  TRP21       0.0452
     19  CD1       -6.3340    4.5860   -7.7240 C.3    21  TRP21       0.1165
     20  NE1       -6.4350    3.5540   -8.6250 N.pl3  21  TRP21      -0.2376
     21  CE2       -6.4260    2.3040   -8.0730 C.ar   21  TRP21       0.0614
     22  CZ2       -6.6810    0.9920   -8.5980 C.ar   21  TRP21       0.0158
     23  CH2       -6.6030   -0.0150   -7.6030 C.ar   21  TRP21       0.0013
     24  CZ3       -6.3590    0.2440   -6.2630 C.ar   21  TRP21      -0.0002
     25  CE3       -6.1580    1.5020   -5.7750 C.ar   21  TRP21      -0.0030
     26  CD2       -6.2580    2.5580   -6.6910 C.ar   21  TRP21      -0.0059
@<TRIPOS>BOND
     1    22    23   ar
     2    22    21   ar
     3    23    24   ar
     4    21    20    1
     5    21    26   ar
     6    24    25   ar
     7    20    19    1
     8    25    26   ar
     9    26    18    1
    10    19    18    1
    11    18    17    1
    12     3     2    1
    13     2     4    1
    14     2     1    1
    15     5     6    1
    16     7     6   ar
    17    13    15    1
    18    13    14    1
    19    15    16    1
    20     6     8   ar
    21     9    11    1
    22     9    10    1
    23    11    12    1
@<TRIPOS>MOLECULE
9912992
 34 37 0 0 0
SMALL
GASTEIGER

@<TRIPOS>ATOM
      1 S          -2.5519   -0.9661   -6.7425 S.O2    1  LIG11       0.0908
      2 O          -6.0724   -1.0464   -5.2980 O.3     1  LIG11      -0.4435
      3 O          -6.4504   -2.0123   -2.8525 O.3     1  LIG11      -0.4771
      4 O          -2.7908   -0.7209   -8.1495 O.2     1  LIG11      -0.1484
      5 O          -2.7323   -2.2795   -6.1556 O.2     1  LIG11      -0.1484
      6 O          -6.3874   -1.8224   -8.0497 O.3     1  LIG11      -0.4914
      7 N          -3.4042    0.2042   -5.8401 N.pl3   1  LIG11      -0.1950
      8 N          -2.8911   -0.1347   -3.6300 N.ar    1  LIG11      -0.2073
      9 N          -4.3374   -1.2792   -2.1267 N.ar    1  LIG11      -0.1899
     10 N          -0.7335    0.9037   -6.2850 N.ar    1  LIG11      -0.2351
     11 N          -0.2530   -0.3317    0.7069 N.ar    1  LIG11      -0.2632
     12 C          -3.8384   -0.2685   -4.5739 C.ar    1  LIG11       0.1882
     13 C          -5.0700   -0.8677   -4.3843 C.ar    1  LIG11       0.2307
     14 C          -0.8623   -0.4484   -6.4317 C.ar    1  LIG11       0.1969
     15 C          -5.2470   -1.3800   -3.1161 C.ar    1  LIG11       0.2638
     16 C          -3.1850   -0.6568   -2.4259 C.ar    1  LIG11       0.1659
     17 C           0.1652   -1.3691   -6.3471 C.ar    1  LIG11      -0.0160
     18 C          -2.1766   -0.5454   -1.3555 C.ar    1  LIG11       0.0222
     19 C          -6.2760   -0.1048   -6.2780 C.ar    1  LIG11       0.1702
     20 C           1.6449    0.5186   -6.0369 C.ar    1  LIG11      -0.0322
     21 C           1.4467   -0.8640   -6.1487 C.ar    1  LIG11      -0.0541
     22 C           0.5285    1.3493   -6.1171 C.ar    1  LIG11       0.0327
     23 C          -6.4095   -0.5258   -7.6077 C.ar    1  LIG11       0.1621
     24 C          -6.3798    1.2582   -5.9630 C.ar    1  LIG11      -0.0157
     25 C           3.0168    1.1030   -5.9059 C.3     1  LIG11      -0.0383
     26 C          -2.4148   -1.0609   -0.0701 C.ar    1  LIG11      -0.0329
     27 C          -0.9389    0.0772   -1.5701 C.ar    1  LIG11      -0.0329
     28 C          -6.5114    0.4322   -8.6202 C.ar    1  LIG11      -0.0163
     29 C          -6.5077    2.2043   -6.9808 C.ar    1  LIG11      -0.0581
     30 C          -6.5557    1.7922   -8.3104 C.ar    1  LIG11      -0.0581
     31 C          -1.4414   -0.9321    0.9083 C.ar    1  LIG11       0.0282
     32 C          -0.0270    0.1595   -0.5279 C.ar    1  LIG11       0.0282
     33 C          -6.5127   -2.6154   -1.5649 C.3     1  LIG11       0.0805
     34 C          -7.0966   -2.7540   -7.2386 C.3     1  LIG11       0.0790
@<TRIPOS>BOND
     1     1     4    2
     2     1     5    2
     3     1     7    1
     4     1    14    1
     5     2    13    1
     6     2    19    1
     7     3    15    1
     8     3    33    1
     9     6    23    1
    10     6    34    1
    11     7    12    1
    12     8    12   ar
    13     8    16   ar
    14     9    15   ar
    15     9    16   ar
    16    10    14   ar
    17    10    22   ar
    18    11    31   ar
    19    11    32   ar
    20    12    13   ar
    21    13    15   ar
    22    14    17   ar
    23    16    18    1
    24    17    21   ar
    25    18    26   ar
    26    18    27   ar
    27    19    23   ar
    28    19    24   ar
    29    20    21   ar
    30    20    22   ar
    31    20    25    1
    32    23    28   ar
    33    24    29   ar
    34    26    31   ar
    35    27    32   ar
    36    28    30   ar
    37    29    30   ar
@<TRIPOS>MOLECULE
../ET1/ET1_17-21_50CONFORMERS.pdb
 47 48 0 0 0
SMALL
GASTEIGER

@<TRIPOS>ATOM
      1  N         -4.6550   -0.1730   -1.5130 N.3    17  LEU17      -0.1231
      2  CA        -5.7500   -0.8780   -1.9930 C.3    17  LEU17       0.1693
      3  CB        -6.0020   -2.2270   -1.2310 C.3    17  LEU17       0.0284
      4  CG        -7.3710   -2.9650   -1.4330 C.3    17  LEU17       0.0019
      5  CD1       -7.5290   -3.4450   -2.9110 C.3    17  LEU17       0.0001
      6  CD2       -7.4360   -4.1570   -0.4690 C.3    17  LEU17       0.0001
      7  C         -7.0180   -0.0160   -2.0430 C.2    17  LEU17       0.2592
      8  O         -7.7430    0.0880   -3.0540 O.2    17  LEU17      -0.2718
      9  N         -7.3130    0.6360   -0.9530 N.am   18  ASP18      -0.1960
     10  CA        -8.4730    1.4080   -0.6790 C.3    18  ASP18       0.1840
     11  CB        -9.5170    0.6130    0.1180 C.3    18  ASP18       0.1450
     12  CG       -10.8430    1.4700    0.1790 C.2    18  ASP18       0.3671
     13  OD1      -11.0920    1.8770    1.3330 O.co2  18  ASP18      -0.2456
     14  OD2      -11.3930    1.8330   -0.8510 O.co2  18  ASP18      -0.2456
     15  C         -8.0330    2.8100   -0.1820 C.2    18  ASP18       0.2622
     16  O         -8.5770    3.8010   -0.7010 O.2    18  ASP18      -0.2715
     17  N         -7.1100    2.9300    0.8120 N.am   19  ILE19      -0.1963
     18  CA        -6.7750    4.1770    1.4800 C.3    19  ILE19       0.1727
     19  CB        -6.1460    3.8800    2.9000 C.3    19  ILE19       0.0290
     20  CG2       -4.8240    3.1830    2.7840 C.3    19  ILE19       0.0023
     21  CG1       -5.9350    5.0790    3.7960 C.3    19  ILE19       0.0022
     22  CD1       -7.3240    5.4870    4.3970 C.3    19  ILE19       0.0001
     23  C         -5.9940    5.1560    0.6410 C.2    19  ILE19       0.2616
     24  O         -6.3260    6.3150    0.6450 O.2    19  ILE19      -0.2715
     25  N         -4.9930    4.6300   -0.1030 N.am   20  ILE20      -0.1963
     26  CA        -4.2000    5.4050   -1.0760 C.3    20  ILE20       0.1727
     27  CB        -2.7820    5.5750   -0.5870 C.3    20  ILE20       0.0290
     28  CG2       -2.8140    6.5150    0.6480 C.3    20  ILE20       0.0023
     29  CG1       -2.1060    4.2440   -0.2590 C.3    20  ILE20       0.0022
     30  CD1       -0.5670    4.3010   -0.1670 C.3    20  ILE20       0.0001
     31  C         -4.2600    4.8360   -2.4960 C.2    20  ILE20       0.2617
     32  O         -4.1160    3.6330   -2.6780 O.2    20  ILE20      -0.2715
     33  N         -4.5390    5.7320   -3.4330 N.am   21  TRP21      -0.1941
     34  CA        -4.6520    5.3150   -4.8920 C.3    21  TRP21       0.1982
     35  CB        -6.0840    4.8320   -5.2160 C.3    21  TRP21       0.0394
     36  CG        -6.1980    4.0270   -6.4950 C.3    21  TRP21       0.0475
     37  CD1       -6.3340    4.5860   -7.7240 C.3    21  TRP21       0.1166
     38  NE1       -6.4350    3.5540   -8.6250 N.pl3  21  TRP21      -0.2376
     39  CE2       -6.4260    2.3040   -8.0730 C.ar   21  TRP21       0.0614
     40  CZ2       -6.6810    0.9920   -8.5980 C.ar   21  TRP21       0.0158
     41  CH2       -6.6030   -0.0150   -7.6030 C.ar   21  TRP21       0.0013
     42  CZ3       -6.3590    0.2440   -6.2630 C.ar   21  TRP21      -0.0002
     43  CE3       -6.1580    1.5020   -5.7750 C.ar   21  TRP21      -0.0030
     44  CD2       -6.2580    2.5580   -6.6910 C.ar   21  TRP21      -0.0059
     45  C         -4.2770    6.3840   -5.8570 C.2    21  TRP21       0.3842
     46  O         -4.8300    7.4910   -5.8770 O.co2  21  TRP21      -0.2437
     47  OXT       -3.3280    6.1200   -6.6660 O.co2  21  TRP21      -0.2437
@<TRIPOS>BOND
     1    40    41   ar
     2    40    39   ar
     3    41    42   ar
     4    39    38    1
     5    39    44   ar
     6    42    43   ar
     7    38    37    1
     8    43    44   ar
     9    44    36    1
    10    37    36    1
    11    36    35    1
    12    47    45   ar
    13     5     4    1
    14    35    34    1
    15    45    34    1
    16    45    46   ar
    17    34    33    1
    18     8     7    2
    19     4     6    1
    20     4     3    1
    21     2     3    1
    22     2     1    1
    23     2     7    1
    24     7     9   am
    25    33    31   am
    26    32    31    2
    27    31    26    1
    28     9    10    1
    29    10    11    1
    30    10    15    1
    31    26    27    1
    32    26    25    1
    33    11    12    1
    34    13    12   ar
    35    27    29    1
    36    27    28    1
    37    29    30    1
    38    16    15    2
    39    15    17   am
    40    12    14   ar
    41    25    23   am
    42    17    18    1
    43    23    24    2
    44    23    18    1
    45    18    19    1
    46    19    21    1
    47    19    20    1
    48    21    22    1
