@<TRIPOS>MOLECULE
../ET1/ET1_17-21_50CONFORMERS_NOBACKBONE.pdb
 26 23 0 0 0
SMALL
GASTEIGER

@<TRIPOS>ATOM
      1  CB        -6.4530   -2.7120   -1.5090 C.3    17  LEU17       0.0000
      2  CG        -7.8520   -3.4210   -1.6270 C.3    17  LEU17       0.0000
      3  CD1       -8.2420   -3.4830   -3.1120 C.3    17  LEU17       0.0000
      4  CD2       -7.8840   -4.9360   -1.2500 C.3    17  LEU17       0.0000
      5  CB        -9.3430    0.2160    1.1530 C.3    18  ASP18       0.1258
      6  CG       -10.6890    0.7860    1.3810 C.2    18  ASP18       0.3654
      7  OD1      -11.0270    1.1820    2.4820 O.co2  18  ASP18      -0.2456
      8  OD2      -11.4830    0.7020    0.3740 O.co2  18  ASP18      -0.2456
      9  CB        -5.5510    3.1290    3.3680 C.3    19  ILE19       0.0000
     10  CG2       -5.3620    4.4080    4.2770 C.3    19  ILE19       0.0000
     11  CG1       -5.9730    1.9220    4.1740 C.3    19  ILE19       0.0000
     12  CD1       -7.2610    2.0620    4.9600 C.3    19  ILE19       0.0000
     13  CB        -2.6820    5.8720    0.2320 C.3    20  ILE20       0.0000
     14  CG2       -2.6210    6.4220    1.7090 C.3    20  ILE20       0.0000
     15  CG1       -1.6860    4.7460    0.0490 C.3    20  ILE20       0.0000
     16  CD1       -0.2380    5.0860    0.2240 C.3    20  ILE20       0.0000
     17  CB        -5.8890    6.4760   -4.1350 C.3    21  TRP21       0.0066
     18  CG        -6.9060    5.8100   -3.3100 C.3    21  TRP21       0.0452
     19  CD1       -7.1820    6.1250   -2.0440 C.3    21  TRP21       0.1165
     20  NE1       -8.1780    5.3590   -1.5660 N.pl3  21  TRP21      -0.2376
     21  CE2       -8.7010    4.5190   -2.5190 C.ar   21  TRP21       0.0614
     22  CZ2       -9.7180    3.5930   -2.5470 C.ar   21  TRP21       0.0158
     23  CH2       -9.8630    2.7900   -3.6390 C.ar   21  TRP21       0.0013
     24  CZ3       -9.0980    3.0010   -4.7700 C.ar   21  TRP21      -0.0002
     25  CE3       -8.1680    4.0800   -4.8000 C.ar   21  TRP21      -0.0030
     26  CD2       -7.9000    4.8450   -3.6530 C.ar   21  TRP21      -0.0059
@<TRIPOS>BOND
     1    22    23   ar
     2    22    21   ar
     3    23    24   ar
     4    21    20    1
     5    21    26   ar
     6    24    25   ar
     7    20    19    1
     8    25    26   ar
     9    26    18    1
    10    19    18    1
    11    18    17    1
    12     3     2    1
    13     2     4    1
    14     2     1    1
    15     5     6    1
    16     7     6   ar
    17    13    15    1
    18    13    14    1
    19    15    16    1
    20     6     8   ar
    21     9    11    1
    22     9    10    1
    23    11    12    1
@<TRIPOS>MOLECULE
156690
 38 41 0 0 0
SMALL
GASTEIGER

@<TRIPOS>ATOM
      1 S         -12.0870    5.9252   -3.0453 S.O2    1  LIG11       0.0741
      2 O          -7.6497   -0.5479   -1.3055 O.2     1  LIG11      -0.2756
      3 O         -13.4745    6.0367   -2.6319 O.2     1  LIG11      -0.1499
      4 O         -11.7807    5.2599   -4.2874 O.2     1  LIG11      -0.1499
      5 O          -7.1998    0.6527   -6.4245 O.2     1  LIG11      -0.4436
      6 O          -8.5032    8.0556   -4.8197 O.2     1  LIG11      -0.3578
      7 N          -9.7206   -0.1125   -2.1911 N.am    1  LIG11      -0.3002
      8 N         -11.5067    7.5418   -3.0990 N.pl3   1  LIG11      -0.1965
      9 N          -7.7019    2.4226   -7.7336 N.ar    1  LIG11      -0.2175
     10 N          -9.8838    8.0211   -4.7602 N.ar    1  LIG11      -0.0614
     11 C          -7.6739   -3.4089   -1.8935 C.3     1  LIG11      -0.0295
     12 C          -8.8287   -2.4339   -2.2448 C.3     1  LIG11       0.0290
     13 C          -8.0834   -4.8113   -2.3955 C.3     1  LIG11      -0.0596
     14 C          -7.4496   -3.4973   -0.3744 C.3     1  LIG11      -0.0596
     15 C          -6.3621   -3.0212   -2.5967 C.3     1  LIG11      -0.0596
     16 C          -8.6648   -0.9635   -1.8634 C.2     1  LIG11       0.2161
     17 C          -9.5960    1.3114   -1.8587 C.3     1  LIG11       0.0400
     18 C          -9.2785    2.2390   -3.0300 C.ar    1  LIG11      -0.0216
     19 C          -9.5284    3.6438   -2.9640 C.ar    1  LIG11      -0.0113
     20 C         -10.0883    4.3263   -1.7502 C.ar    1  LIG11       0.0090
     21 C         -10.9724   -0.5127   -2.8212 C.3     1  LIG11       0.0035
     22 C          -8.6567    1.6894   -4.1854 C.ar    1  LIG11      -0.0442
     23 C         -11.1934    5.2120   -1.6696 C.ar    1  LIG11       0.1162
     24 C          -9.1366    4.3925   -4.0843 C.ar    1  LIG11      -0.0529
     25 C          -8.3418    2.4626   -5.3069 C.ar    1  LIG11       0.0372
     26 C          -8.5975    3.8246   -5.2421 C.ar    1  LIG11      -0.0489
     27 C          -9.4331    4.0664   -0.5191 C.ar    1  LIG11      -0.0521
     28 C         -11.6834    5.6429   -0.4102 C.ar    1  LIG11      -0.0345
     29 C          -9.9130    4.5113    0.7181 C.ar    1  LIG11      -0.0611
     30 C          -7.7716    1.8960   -6.5239 C.ar    1  LIG11       0.2271
     31 C         -11.0606    5.2793    0.7759 C.ar    1  LIG11      -0.0599
     32 C         -10.1855    7.7644   -3.4868 C.ar    1  LIG11       0.1837
     33 C          -9.0312    7.8169   -2.6607 C.ar    1  LIG11       0.0342
     34 C          -7.9952    7.9012   -3.5691 C.ar    1  LIG11       0.1390
     35 C          -8.9073    7.7561   -1.1898 C.3     1  LIG11      -0.0330
     36 C          -6.7398    0.3977   -7.6811 C.ar    1  LIG11       0.1125
     37 C          -7.0600    1.4669   -8.4769 C.ar    1  LIG11       0.0663
     38 C          -6.5250    7.8292   -3.4526 C.3     1  LIG11      -0.0034
@<TRIPOS>BOND
     1     1     3    2
     2     1     4    2
     3     1     8    1
     4     1    23    1
     5     2    16    2
     6     5    30   ar
     7     5    36   ar
     8     6    10   ar
     9     6    34   ar
    10     7    16   am
    11     7    17    1
    12     7    21    1
    13     8    32    1
    14     9    30   ar
    15     9    37   ar
    16    10    32   ar
    17    11    12    1
    18    11    13    1
    19    11    14    1
    20    11    15    1
    21    12    16    1
    22    17    18    1
    23    18    19   ar
    24    18    22   ar
    25    19    20    1
    26    19    24   ar
    27    20    23   ar
    28    20    27   ar
    29    22    25   ar
    30    23    28   ar
    31    24    26   ar
    32    25    26   ar
    33    25    30    1
    34    27    29   ar
    35    28    31   ar
    36    29    31   ar
    37    32    33   ar
    38    33    34   ar
    39    33    35    1
    40    34    38    1
    41    36    37   ar
@<TRIPOS>MOLECULE
../ET1/ET1_17-21_50CONFORMERS.pdb
 47 48 0 0 0
SMALL
GASTEIGER

@<TRIPOS>ATOM
      1  N         -5.0750   -0.6840   -1.4600 N.3    17  LEU17      -0.1231
      2  CA        -6.3230   -1.2690   -2.0240 C.3    17  LEU17       0.1693
      3  CB        -6.4530   -2.7120   -1.5090 C.3    17  LEU17       0.0284
      4  CG        -7.8520   -3.4210   -1.6270 C.3    17  LEU17       0.0019
      5  CD1       -8.2420   -3.4830   -3.1120 C.3    17  LEU17       0.0001
      6  CD2       -7.8840   -4.9360   -1.2500 C.3    17  LEU17       0.0001
      7  C         -7.5170   -0.4350   -1.5600 C.2    17  LEU17       0.2592
      8  O         -8.5840   -0.5170   -2.1010 O.2    17  LEU17      -0.2718
      9  N         -7.4270    0.2920   -0.4370 N.am   18  ASP18      -0.1960
     10  CA        -8.5550    1.0260    0.1610 C.3    18  ASP18       0.1840
     11  CB        -9.3430    0.2160    1.1530 C.3    18  ASP18       0.1450
     12  CG       -10.6890    0.7860    1.3810 C.2    18  ASP18       0.3671
     13  OD1      -11.0270    1.1820    2.4820 O.co2  18  ASP18      -0.2456
     14  OD2      -11.4830    0.7020    0.3740 O.co2  18  ASP18      -0.2456
     15  C         -8.0750    2.3090    0.8050 C.2    18  ASP18       0.2622
     16  O         -8.8600    3.2300    0.7900 O.2    18  ASP18      -0.2715
     17  N         -6.8520    2.3840    1.3680 N.am   19  ILE19      -0.1963
     18  CA        -6.4810    3.5140    2.1970 C.3    19  ILE19       0.1727
     19  CB        -5.5510    3.1290    3.3680 C.3    19  ILE19       0.0290
     20  CG2       -5.3620    4.4080    4.2770 C.3    19  ILE19       0.0023
     21  CG1       -5.9730    1.9220    4.1740 C.3    19  ILE19       0.0022
     22  CD1       -7.2610    2.0620    4.9600 C.3    19  ILE19       0.0001
     23  C         -5.9380    4.6850    1.2940 C.2    19  ILE19       0.2616
     24  O         -6.6070    5.7010    1.1620 O.2    19  ILE19      -0.2715
     25  N         -4.7480    4.5690    0.7150 N.am   20  ILE20      -0.1963
     26  CA        -4.1410    5.5460   -0.2020 C.3    20  ILE20       0.1727
     27  CB        -2.6820    5.8720    0.2320 C.3    20  ILE20       0.0290
     28  CG2       -2.6210    6.4220    1.7090 C.3    20  ILE20       0.0023
     29  CG1       -1.6860    4.7460    0.0490 C.3    20  ILE20       0.0022
     30  CD1       -0.2380    5.0860    0.2240 C.3    20  ILE20       0.0001
     31  C         -4.2210    5.0480   -1.6510 C.2    20  ILE20       0.2617
     32  O         -4.4240    3.8730   -1.9550 O.2    20  ILE20      -0.2715
     33  N         -4.1680    6.0200   -2.6190 N.am   21  TRP21      -0.1941
     34  CA        -4.4860    5.9330   -4.0290 C.3    21  TRP21       0.1982
     35  CB        -5.8890    6.4760   -4.1350 C.3    21  TRP21       0.0394
     36  CG        -6.9060    5.8100   -3.3100 C.3    21  TRP21       0.0475
     37  CD1       -7.1820    6.1250   -2.0440 C.3    21  TRP21       0.1166
     38  NE1       -8.1780    5.3590   -1.5660 N.pl3  21  TRP21      -0.2376
     39  CE2       -8.7010    4.5190   -2.5190 C.ar   21  TRP21       0.0614
     40  CZ2       -9.7180    3.5930   -2.5470 C.ar   21  TRP21       0.0158
     41  CH2       -9.8630    2.7900   -3.6390 C.ar   21  TRP21       0.0013
     42  CZ3       -9.0980    3.0010   -4.7700 C.ar   21  TRP21      -0.0002
     43  CE3       -8.1680    4.0800   -4.8000 C.ar   21  TRP21      -0.0030
     44  CD2       -7.9000    4.8450   -3.6530 C.ar   21  TRP21      -0.0059
     45  C         -3.4690    6.6300   -4.9650 C.2    21  TRP21       0.3842
     46  O         -3.0990    7.7710   -4.6320 O.co2  21  TRP21      -0.2437
     47  OXT       -3.1460    6.1810   -6.1060 O.co2  21  TRP21      -0.2437
@<TRIPOS>BOND
     1    40    41   ar
     2    40    39   ar
     3    41    42   ar
     4    39    38    1
     5    39    44   ar
     6    42    43   ar
     7    38    37    1
     8    43    44   ar
     9    44    36    1
    10    37    36    1
    11    36    35    1
    12    47    45   ar
    13     5     4    1
    14    35    34    1
    15    45    34    1
    16    45    46   ar
    17    34    33    1
    18     8     7    2
    19     4     6    1
    20     4     3    1
    21     2     3    1
    22     2     1    1
    23     2     7    1
    24     7     9   am
    25    33    31   am
    26    32    31    2
    27    31    26    1
    28     9    10    1
    29    10    11    1
    30    10    15    1
    31    26    27    1
    32    26    25    1
    33    11    12    1
    34    13    12   ar
    35    27    29    1
    36    27    28    1
    37    29    30    1
    38    16    15    2
    39    15    17   am
    40    12    14   ar
    41    25    23   am
    42    17    18    1
    43    23    24    2
    44    23    18    1
    45    18    19    1
    46    19    21    1
    47    19    20    1
    48    21    22    1
