@<TRIPOS>MOLECULE
../ET1/ET1_17-21_50CONFORMERS_NOBACKBONE.pdb
 26 23 0 0 0
SMALL
GASTEIGER

@<TRIPOS>ATOM
      1  CB        -6.3140   -1.7030   -1.0200 C.3    17  LEU17       0.0000
      2  CG        -7.7120   -2.3290   -1.2350 C.3    17  LEU17       0.0000
      3  CD1       -7.8370   -2.7490   -2.7140 C.3    17  LEU17       0.0000
      4  CD2       -7.9870   -3.4570   -0.2360 C.3    17  LEU17       0.0000
      5  CB        -9.1000    1.3640    0.7210 C.3    18  ASP18       0.1258
      6  CG       -10.3480    2.1540    1.2570 C.2    18  ASP18       0.3654
      7  OD1      -11.2810    2.3270    0.4800 O.co2  18  ASP18      -0.2456
      8  OD2      -10.2640    2.7880    2.3400 O.co2  18  ASP18      -0.2456
      9  CB        -4.8180    4.2690    2.8000 C.3    19  ILE19       0.0000
     10  CG2       -4.1370    5.5640    3.2470 C.3    19  ILE19       0.0000
     11  CG1       -5.5690    3.5730    4.0300 C.3    19  ILE19       0.0000
     12  CD1       -4.5530    2.8980    4.9200 C.3    19  ILE19       0.0000
     13  CB        -2.6170    5.5690   -1.4950 C.3    20  ILE20       0.0000
     14  CG2       -2.4710    6.9190   -0.7040 C.3    20  ILE20       0.0000
     15  CG1       -1.7440    4.4260   -0.8990 C.3    20  ILE20       0.0000
     16  CD1       -0.3100    4.4600   -1.3900 C.3    20  ILE20       0.0000
     17  CB        -6.4360    3.8300   -5.0650 C.3    21  TRP21       0.0066
     18  CG        -6.9980    2.9980   -6.1850 C.3    21  TRP21       0.0452
     19  CD1       -7.6910    3.4970   -7.2190 C.3    21  TRP21       0.1165
     20  NE1       -8.1030    2.4010   -8.0210 N.pl3  21  TRP21      -0.2376
     21  CE2       -7.5430    1.2310   -7.6120 C.ar   21  TRP21       0.0614
     22  CZ2       -7.5740   -0.0530   -8.1410 C.ar   21  TRP21       0.0158
     23  CH2       -7.0500   -1.0880   -7.3830 C.ar   21  TRP21       0.0013
     24  CZ3       -6.4280   -0.8890   -6.1760 C.ar   21  TRP21      -0.0002
     25  CE3       -6.3020    0.4230   -5.7090 C.ar   21  TRP21      -0.0030
     26  CD2       -6.9040    1.5300   -6.3920 C.ar   21  TRP21      -0.0059
@<TRIPOS>BOND
     1    22    23   ar
     2    22    21   ar
     3    23    24   ar
     4    21    20    1
     5    21    26   ar
     6    24    25   ar
     7    20    19    1
     8    25    26   ar
     9    26    18    1
    10    19    18    1
    11    18    17    1
    12     3     2    1
    13     2     4    1
    14     2     1    1
    15     5     6    1
    16     7     6   ar
    17    13    15    1
    18    13    14    1
    19    15    16    1
    20     6     8   ar
    21     9    11    1
    22     9    10    1
    23    11    12    1
@<TRIPOS>MOLECULE
01479498K
 34 38 0 0 0
SMALL
GASTEIGER

@<TRIPOS>ATOM
      1 C          -6.6161    2.9719   -6.8477 C.3     1  LIG11       0.1526
      2 C          -7.1721    3.8228   -5.7460 C.2     1  LIG11       0.0278
      3 C          -6.6467    1.4632   -6.5952 C.ar    1  LIG11       0.0009
      4 O          -5.2580    3.3064   -7.2336 O.3     1  LIG11      -0.4789
      5 C          -6.4096    4.5189   -4.8830 C.2     1  LIG11       0.0016
      6 C          -8.6969    3.8536   -5.7352 C.2     1  LIG11       0.0721
      7 C          -6.3595    0.9184   -5.3293 C.ar    1  LIG11      -0.0091
      8 C          -6.9031    0.5843   -7.6774 C.ar    1  LIG11      -0.0511
      9 C          -4.4517    3.7490   -6.2212 C.ar    1  LIG11       0.1298
     10 C          -4.9498    4.3326   -5.0533 C.ar    1  LIG11       0.0283
     11 C          -7.0178    5.3685   -3.8386 C.ar    1  LIG11      -0.0165
     12 O          -9.2423    3.1990   -4.8043 O.co2   1  LIG11      -0.5448
     13 O          -9.2144    4.4768   -6.7050 O.co2   1  LIG11      -0.5448
     14 C          -6.3474   -0.4528   -5.1902 C.ar    1  LIG11       0.1666
     15 C          -6.8872   -0.8044   -7.5064 C.ar    1  LIG11      -0.0158
     16 C          -3.0775    3.6128   -6.4199 C.ar    1  LIG11      -0.0158
     17 C          -4.0405    4.7351   -4.0620 C.ar    1  LIG11      -0.0087
     18 C          -7.1776    6.7398   -4.0533 C.ar    1  LIG11      -0.0505
     19 C          -7.3667    4.8243   -2.5986 C.ar    1  LIG11      -0.0505
     20 C          -6.6050   -1.2907   -6.2491 C.ar    1  LIG11       0.1662
     21 O          -6.0801   -1.1332   -4.0426 O.3     1  LIG11      -0.4526
     22 C          -2.1868    4.0112   -5.4236 C.ar    1  LIG11      -0.0164
     23 C          -2.6675    4.5436   -4.2286 C.ar    1  LIG11       0.1217
     24 C          -7.6443    7.5600   -3.0229 C.ar    1  LIG11      -0.0194
     25 C          -7.8279    5.6478   -1.5664 C.ar    1  LIG11      -0.0194
     26 O          -6.5378   -2.6049   -5.9007 O.3     1  LIG11      -0.4526
     27 C          -6.2466   -2.4902   -4.4929 C.3     1  LIG11       0.2332
     28 O          -1.7179    4.8873   -3.3042 O.3     1  LIG11      -0.4893
     29 C          -7.9471    7.0238   -1.7686 C.ar    1  LIG11       0.1201
     30 C          -2.0833    4.7109   -1.9273 C.3     1  LIG11       0.0946
     31 O          -8.3539    7.9379   -0.8333 O.3     1  LIG11      -0.4951
     32 C          -2.3320    6.0757   -1.2937 C.3     1  LIG11      -0.0281
     33 C          -0.9094    4.0169   -1.2405 C.3     1  LIG11      -0.0281
     34 C          -8.4162    7.4744    0.5091 C.3     1  LIG11       0.0788
@<TRIPOS>BOND
     1     1     4    1
     2     1     2    1
     3     1     3    1
     4     2     5    2
     5     2     6    1
     6     3     8   ar
     7     3     7   ar
     8     4     9    1
     9     5    10    1
    10     5    11    1
    11     6    13   ar
    12     6    12   ar
    13     7    14   ar
    14     8    15   ar
    15     9    16   ar
    16     9    10   ar
    17    10    17   ar
    18    11    18   ar
    19    11    19   ar
    20    14    21    1
    21    14    20   ar
    22    15    20   ar
    23    16    22   ar
    24    17    23   ar
    25    18    24   ar
    26    19    25   ar
    27    20    26    1
    28    21    27    1
    29    22    23   ar
    30    23    28    1
    31    24    29   ar
    32    25    29   ar
    33    26    27    1
    34    28    30    1
    35    29    31    1
    36    30    33    1
    37    30    32    1
    38    31    34    1
@<TRIPOS>MOLECULE
../ET1/ET1_17-21_50CONFORMERS.pdb
 47 48 0 0 0
SMALL
GASTEIGER

@<TRIPOS>ATOM
      1  N         -4.7690    0.1010   -1.6400 N.3    17  LEU17      -0.1231
      2  CA        -6.0160   -0.5120   -2.0050 C.3    17  LEU17       0.1693
      3  CB        -6.3140   -1.7030   -1.0200 C.3    17  LEU17       0.0284
      4  CG        -7.7120   -2.3290   -1.2350 C.3    17  LEU17       0.0019
      5  CD1       -7.8370   -2.7490   -2.7140 C.3    17  LEU17       0.0001
      6  CD2       -7.9870   -3.4570   -0.2360 C.3    17  LEU17       0.0001
      7  C         -7.1180    0.5280   -1.8380 C.2    17  LEU17       0.2592
      8  O         -7.8620    0.8130   -2.8010 O.2    17  LEU17      -0.2718
      9  N         -7.1810    1.2020   -0.7160 N.am   18  ASP18      -0.1960
     10  CA        -8.1440    2.1370   -0.2650 C.3    18  ASP18       0.1840
     11  CB        -9.1000    1.3640    0.7210 C.3    18  ASP18       0.1450
     12  CG       -10.3480    2.1540    1.2570 C.2    18  ASP18       0.3671
     13  OD1      -11.2810    2.3270    0.4800 O.co2  18  ASP18      -0.2456
     14  OD2      -10.2640    2.7880    2.3400 O.co2  18  ASP18      -0.2456
     15  C         -7.6710    3.4460    0.3440 C.2    18  ASP18       0.2622
     16  O         -8.0810    4.5030   -0.1220 O.2    18  ASP18      -0.2715
     17  N         -6.6590    3.4240    1.2540 N.am   19  ILE19      -0.1963
     18  CA        -5.9390    4.6200    1.7680 C.3    19  ILE19       0.1727
     19  CB        -4.8180    4.2690    2.8000 C.3    19  ILE19       0.0290
     20  CG2       -4.1370    5.5640    3.2470 C.3    19  ILE19       0.0023
     21  CG1       -5.5690    3.5730    4.0300 C.3    19  ILE19       0.0022
     22  CD1       -4.5530    2.8980    4.9200 C.3    19  ILE19       0.0001
     23  C         -5.3610    5.3850    0.5350 C.2    19  ILE19       0.2616
     24  O         -5.6970    6.5880    0.3160 O.2    19  ILE19      -0.2715
     25  N         -4.6040    4.6750   -0.3290 N.am   20  ILE20      -0.1963
     26  CA        -4.1080    5.2050   -1.5810 C.3    20  ILE20       0.1727
     27  CB        -2.6170    5.5690   -1.4950 C.3    20  ILE20       0.0290
     28  CG2       -2.4710    6.9190   -0.7040 C.3    20  ILE20       0.0023
     29  CG1       -1.7440    4.4260   -0.8990 C.3    20  ILE20       0.0022
     30  CD1       -0.3100    4.4600   -1.3900 C.3    20  ILE20       0.0001
     31  C         -4.2640    4.2090   -2.7410 C.2    20  ILE20       0.2617
     32  O         -4.1140    3.0170   -2.5420 O.2    20  ILE20      -0.2715
     33  N         -4.5860    4.7690   -3.9350 N.am   21  TRP21      -0.1941
     34  CA        -4.9380    4.0930   -5.2110 C.3    21  TRP21       0.1982
     35  CB        -6.4360    3.8300   -5.0650 C.3    21  TRP21       0.0394
     36  CG        -6.9980    2.9980   -6.1850 C.3    21  TRP21       0.0475
     37  CD1       -7.6910    3.4970   -7.2190 C.3    21  TRP21       0.1166
     38  NE1       -8.1030    2.4010   -8.0210 N.pl3  21  TRP21      -0.2376
     39  CE2       -7.5430    1.2310   -7.6120 C.ar   21  TRP21       0.0614
     40  CZ2       -7.5740   -0.0530   -8.1410 C.ar   21  TRP21       0.0158
     41  CH2       -7.0500   -1.0880   -7.3830 C.ar   21  TRP21       0.0013
     42  CZ3       -6.4280   -0.8890   -6.1760 C.ar   21  TRP21      -0.0002
     43  CE3       -6.3020    0.4230   -5.7090 C.ar   21  TRP21      -0.0030
     44  CD2       -6.9040    1.5300   -6.3920 C.ar   21  TRP21      -0.0059
     45  C         -4.5080    4.8730   -6.4800 C.2    21  TRP21       0.3842
     46  O         -4.2510    4.2570   -7.5450 O.co2  21  TRP21      -0.2437
     47  OXT       -4.4690    6.1530   -6.4480 O.co2  21  TRP21      -0.2437
@<TRIPOS>BOND
     1    40    41   ar
     2    40    39   ar
     3    41    42   ar
     4    39    38    1
     5    39    44   ar
     6    42    43   ar
     7    38    37    1
     8    43    44   ar
     9    44    36    1
    10    37    36    1
    11    36    35    1
    12    47    45   ar
    13     5     4    1
    14    35    34    1
    15    45    34    1
    16    45    46   ar
    17    34    33    1
    18     8     7    2
    19     4     6    1
    20     4     3    1
    21     2     3    1
    22     2     1    1
    23     2     7    1
    24     7     9   am
    25    33    31   am
    26    32    31    2
    27    31    26    1
    28     9    10    1
    29    10    11    1
    30    10    15    1
    31    26    27    1
    32    26    25    1
    33    11    12    1
    34    13    12   ar
    35    27    29    1
    36    27    28    1
    37    29    30    1
    38    16    15    2
    39    15    17   am
    40    12    14   ar
    41    25    23   am
    42    17    18    1
    43    23    24    2
    44    23    18    1
    45    18    19    1
    46    19    21    1
    47    19    20    1
    48    21    22    1
