@<TRIPOS>MOLECULE
../ET1/ET1_17-21_50CONFORMERS_NOBACKBONE.pdb
 26 23 0 0 0
SMALL
GASTEIGER

@<TRIPOS>ATOM
      1  CB        -5.4700   -1.7730   -3.1120 C.3    17  LEU17       0.0000
      2  CG        -6.7900   -2.5440   -3.4740 C.3    17  LEU17       0.0000
      3  CD1       -7.0450   -2.3540   -4.9550 C.3    17  LEU17       0.0000
      4  CD2       -6.7910   -4.0540   -3.2680 C.3    17  LEU17       0.0000
      5  CB        -9.0330   -0.0920   -0.3620 C.3    18  ASP18       0.1258
      6  CG       -10.2330    0.4120    0.4010 C.2    18  ASP18       0.3654
      7  OD1      -11.1160    1.0220   -0.2680 O.co2  18  ASP18      -0.2456
      8  OD2      -10.4510    0.1630    1.6130 O.co2  18  ASP18      -0.2456
      9  CB        -5.4710    2.2040    3.1630 C.3    19  ILE19       0.0000
     10  CG2       -5.1840    3.1650    4.3090 C.3    19  ILE19       0.0000
     11  CG1       -6.1520    0.8640    3.6900 C.3    19  ILE19       0.0000
     12  CD1       -5.5640    0.1860    4.9100 C.3    19  ILE19       0.0000
     13  CB        -2.8050    5.3000    0.0680 C.3    20  ILE20       0.0000
     14  CG2       -2.8110    6.1260    1.4110 C.3    20  ILE20       0.0000
     15  CG1       -1.8290    4.1090    0.1720 C.3    20  ILE20       0.0000
     16  CD1       -0.3670    4.5410    0.3990 C.3    20  ILE20       0.0000
     17  CB        -4.4580    6.4030   -4.9110 C.3    21  TRP21       0.0066
     18  CG        -4.3280    6.3820   -6.4230 C.3    21  TRP21       0.0452
     19  CD1       -4.4150    7.5280   -7.1320 C.3    21  TRP21       0.1165
     20  NE1       -4.1980    7.3100   -8.4730 N.pl3  21  TRP21      -0.2376
     21  CE2       -4.0690    5.9840   -8.7560 C.ar   21  TRP21       0.0614
     22  CZ2       -3.7460    5.2670   -9.9520 C.ar   21  TRP21       0.0158
     23  CH2       -3.6540    3.8750   -9.8130 C.ar   21  TRP21       0.0013
     24  CZ3       -4.0280    3.2260   -8.6640 C.ar   21  TRP21      -0.0002
     25  CE3       -4.2890    4.0000   -7.5300 C.ar   21  TRP21      -0.0030
     26  CD2       -4.2870    5.3570   -7.4880 C.ar   21  TRP21      -0.0059
@<TRIPOS>BOND
     1    22    23   ar
     2    22    21   ar
     3    23    24   ar
     4    21    20    1
     5    21    26   ar
     6    24    25   ar
     7    20    19    1
     8    25    26   ar
     9    26    18    1
    10    19    18    1
    11    18    17    1
    12     3     2    1
    13     2     4    1
    14     2     1    1
    15     5     6    1
    16     7     6   ar
    17    13    15    1
    18    13    14    1
    19    15    16    1
    20     6     8   ar
    21     9    11    1
    22     9    10    1
    23    11    12    1
@<TRIPOS>MOLECULE
104865
 39 42 0 0 0
SMALL
GASTEIGER

@<TRIPOS>ATOM
      1 S          -3.9295    2.2887   -3.1909 S.O2    1  LIG11       0.0736
      2 O          -2.7224    1.4977   -3.3329 O.2     1  LIG11      -0.1499
      3 O          -3.9593    3.6675   -3.6268 O.2     1  LIG11      -0.1499
      4 O          -5.1668    2.2228   -6.6096 O.3     1  LIG11      -0.4435
      5 O          -7.5030    3.6270   -7.5000 O.3     1  LIG11      -0.4715
      6 O          -4.4589    1.3555   -9.0277 O.3     1  LIG11      -0.4914
      7 O          -9.8717    6.0585   -8.8646 O.3     1  LIG11      -0.3917
      8 N          -5.1334    1.4124   -3.9722 N.pl3   1  LIG11      -0.1963
      9 N          -7.1380    2.5099   -3.5813 N.ar    1  LIG11      -0.2044
     10 N          -8.3287    3.6134   -5.3286 N.ar    1  LIG11      -0.1866
     11 N         -10.4698    3.9680   -3.5739 N.ar    1  LIG11      -0.2331
     12 N          -8.9716    3.5928   -1.7520 N.ar    1  LIG11      -0.2331
     13 C          -5.3088    2.1561    2.7848 C.3     1  LIG11      -0.0127
     14 C          -5.0114    2.1906    1.2746 C.ar    1  LIG11      -0.0419
     15 C          -3.9854    2.0801    3.5783 C.3     1  LIG11      -0.0560
     16 C          -6.1688    0.9174    3.1124 C.3     1  LIG11      -0.0560
     17 C          -6.0733    3.3971    3.2985 C.3     1  LIG11      -0.0560
     18 C          -4.2718    1.1491    0.6764 C.ar    1  LIG11      -0.0562
     19 C          -5.4475    3.2361    0.4409 C.ar    1  LIG11      -0.0562
     20 C          -4.4106    2.2117   -1.4859 C.ar    1  LIG11       0.1086
     21 C          -3.9656    1.1587   -0.6877 C.ar    1  LIG11      -0.0348
     22 C          -5.1462    3.2533   -0.9253 C.ar    1  LIG11      -0.0348
     23 C          -6.2051    2.1887   -4.4861 C.ar    1  LIG11       0.1883
     24 C          -6.2055    2.5995   -5.8033 C.ar    1  LIG11       0.2307
     25 C          -7.3260    3.3105   -6.1732 C.ar    1  LIG11       0.2642
     26 C          -8.1896    3.2240   -4.0400 C.ar    1  LIG11       0.2027
     27 C          -4.6518    3.1499   -7.4919 C.ar    1  LIG11       0.1702
     28 C          -9.2615    3.6082   -3.0756 C.ar    1  LIG11       0.1978
     29 C          -8.0755    4.9193   -7.7130 C.3     1  LIG11       0.1143
     30 C          -4.2810    2.6899   -8.7626 C.ar    1  LIG11       0.1621
     31 C          -4.4340    4.4880   -7.1414 C.ar    1  LIG11      -0.0157
     32 C          -3.8054    3.5964   -9.7142 C.ar    1  LIG11      -0.0163
     33 C          -9.3503    4.7765   -8.5326 C.3     1  LIG11       0.0783
     34 C          -3.9420    5.3842   -8.0910 C.ar    1  LIG11      -0.0581
     35 C          -3.6440    4.9426   -9.3792 C.ar    1  LIG11      -0.0581
     36 C         -11.4157    4.3180   -2.6841 C.ar    1  LIG11       0.0315
     37 C          -9.9572    3.9556   -0.9109 C.ar    1  LIG11       0.0315
     38 C         -11.2118    4.3311   -1.3261 C.ar    1  LIG11      -0.0254
     39 C          -3.3909    0.7684   -9.7667 C.3     1  LIG11       0.0790
@<TRIPOS>BOND
     1     1     2    2
     2     1     3    2
     3     1     8    1
     4     1    20    1
     5     4    24    1
     6     4    27    1
     7     5    25    1
     8     5    29    1
     9     6    30    1
    10     6    39    1
    11     7    33    1
    12     8    23    1
    13     9    23   ar
    14     9    26   ar
    15    10    25   ar
    16    10    26   ar
    17    11    28   ar
    18    11    36   ar
    19    12    28   ar
    20    12    37   ar
    21    13    14    1
    22    13    15    1
    23    13    16    1
    24    13    17    1
    25    14    18   ar
    26    14    19   ar
    27    18    21   ar
    28    19    22   ar
    29    20    21   ar
    30    20    22   ar
    31    23    24   ar
    32    24    25   ar
    33    26    28    1
    34    27    30   ar
    35    27    31   ar
    36    29    33    1
    37    30    32   ar
    38    31    34   ar
    39    32    35   ar
    40    34    35   ar
    41    36    38   ar
    42    37    38   ar
@<TRIPOS>MOLECULE
../ET1/ET1_17-21_50CONFORMERS.pdb
 47 48 0 0 0
SMALL
GASTEIGER

@<TRIPOS>ATOM
      1  N         -4.2160    0.4160   -2.9520 N.3    17  LEU17      -0.1231
      2  CA        -5.4630   -0.2520   -3.4030 C.3    17  LEU17       0.1693
      3  CB        -5.4700   -1.7730   -3.1120 C.3    17  LEU17       0.0284
      4  CG        -6.7900   -2.5440   -3.4740 C.3    17  LEU17       0.0019
      5  CD1       -7.0450   -2.3540   -4.9550 C.3    17  LEU17       0.0001
      6  CD2       -6.7910   -4.0540   -3.2680 C.3    17  LEU17       0.0001
      7  C         -6.7900    0.3610   -2.8310 C.2    17  LEU17       0.2592
      8  O         -7.6240    0.6580   -3.6850 O.2    17  LEU17      -0.2718
      9  N         -6.9720    0.5400   -1.5390 N.am   18  ASP18      -0.1960
     10  CA        -8.1540    1.0840   -0.8410 C.3    18  ASP18       0.1840
     11  CB        -9.0330   -0.0920   -0.3620 C.3    18  ASP18       0.1450
     12  CG       -10.2330    0.4120    0.4010 C.2    18  ASP18       0.3671
     13  OD1      -11.1160    1.0220   -0.2680 O.co2  18  ASP18      -0.2456
     14  OD2      -10.4510    0.1630    1.6130 O.co2  18  ASP18      -0.2456
     15  C         -7.7900    2.1820    0.2340 C.2    18  ASP18       0.2622
     16  O         -8.3300    3.2620    0.2010 O.2    18  ASP18      -0.2715
     17  N         -6.8500    1.8540    1.1550 N.am   19  ILE19      -0.1963
     18  CA        -6.3420    2.8860    2.0970 C.3    19  ILE19       0.1727
     19  CB        -5.4710    2.2040    3.1630 C.3    19  ILE19       0.0290
     20  CG2       -5.1840    3.1650    4.3090 C.3    19  ILE19       0.0023
     21  CG1       -6.1520    0.8640    3.6900 C.3    19  ILE19       0.0022
     22  CD1       -5.5640    0.1860    4.9100 C.3    19  ILE19       0.0001
     23  C         -5.7590    4.0730    1.4210 C.2    19  ILE19       0.2616
     24  O         -6.0490    5.1730    1.8250 O.2    19  ILE19      -0.2715
     25  N         -4.8150    3.8950    0.4790 N.am   20  ILE20      -0.1963
     26  CA        -4.2330    4.9020   -0.4020 C.3    20  ILE20       0.1727
     27  CB        -2.8050    5.3000    0.0680 C.3    20  ILE20       0.0290
     28  CG2       -2.8110    6.1260    1.4110 C.3    20  ILE20       0.0023
     29  CG1       -1.8290    4.1090    0.1720 C.3    20  ILE20       0.0022
     30  CD1       -0.3670    4.5410    0.3990 C.3    20  ILE20       0.0001
     31  C         -4.1810    4.4800   -1.8450 C.2    20  ILE20       0.2617
     32  O         -4.4770    3.2490   -2.1480 O.2    20  ILE20      -0.2715
     33  N         -3.9440    5.5160   -2.6450 N.am   21  TRP21      -0.1941
     34  CA        -3.5940    5.3680   -4.0770 C.3    21  TRP21       0.1982
     35  CB        -4.4580    6.4030   -4.9110 C.3    21  TRP21       0.0394
     36  CG        -4.3280    6.3820   -6.4230 C.3    21  TRP21       0.0475
     37  CD1       -4.4150    7.5280   -7.1320 C.3    21  TRP21       0.1166
     38  NE1       -4.1980    7.3100   -8.4730 N.pl3  21  TRP21      -0.2376
     39  CE2       -4.0690    5.9840   -8.7560 C.ar   21  TRP21       0.0614
     40  CZ2       -3.7460    5.2670   -9.9520 C.ar   21  TRP21       0.0158
     41  CH2       -3.6540    3.8750   -9.8130 C.ar   21  TRP21       0.0013
     42  CZ3       -4.0280    3.2260   -8.6640 C.ar   21  TRP21      -0.0002
     43  CE3       -4.2890    4.0000   -7.5300 C.ar   21  TRP21      -0.0030
     44  CD2       -4.2870    5.3570   -7.4880 C.ar   21  TRP21      -0.0059
     45  C         -2.1160    5.4700   -4.2830 C.2    21  TRP21       0.3842
     46  O         -1.4560    6.4110   -3.8260 O.co2  21  TRP21      -0.2437
     47  OXT       -1.5070    4.6100   -5.0100 O.co2  21  TRP21      -0.2437
@<TRIPOS>BOND
     1    40    41   ar
     2    40    39   ar
     3    41    42   ar
     4    39    38    1
     5    39    44   ar
     6    42    43   ar
     7    38    37    1
     8    43    44   ar
     9    44    36    1
    10    37    36    1
    11    36    35    1
    12    47    45   ar
    13     5     4    1
    14    35    34    1
    15    45    34    1
    16    45    46   ar
    17    34    33    1
    18     8     7    2
    19     4     6    1
    20     4     3    1
    21     2     3    1
    22     2     1    1
    23     2     7    1
    24     7     9   am
    25    33    31   am
    26    32    31    2
    27    31    26    1
    28     9    10    1
    29    10    11    1
    30    10    15    1
    31    26    27    1
    32    26    25    1
    33    11    12    1
    34    13    12   ar
    35    27    29    1
    36    27    28    1
    37    29    30    1
    38    16    15    2
    39    15    17   am
    40    12    14   ar
    41    25    23   am
    42    17    18    1
    43    23    24    2
    44    23    18    1
    45    18    19    1
    46    19    21    1
    47    19    20    1
    48    21    22    1
