@<TRIPOS>MOLECULE
../ET1/ET1_17-21_50CONFORMERS_NOBACKBONE.pdb
 26 23 0 0 0
SMALL
GASTEIGER

@<TRIPOS>ATOM
      1  CB        -5.4530   -1.5720   -1.0690 C.3    17  LEU17       0.0000
      2  CG        -6.6970   -2.4780   -1.0330 C.3    17  LEU17       0.0000
      3  CD1       -6.9020   -3.5380   -2.1700 C.3    17  LEU17       0.0000
      4  CD2       -6.6500   -3.2760    0.2870 C.3    17  LEU17       0.0000
      5  CB        -8.9870    1.1020   -0.0360 C.3    18  ASP18       0.1258
      6  CG       -10.3760    1.8060    0.1000 C.2    18  ASP18       0.3654
      7  OD1      -11.2340    1.4710   -0.7260 O.co2  18  ASP18      -0.2456
      8  OD2      -10.5620    2.7020    1.0180 O.co2  18  ASP18      -0.2456
      9  CB        -5.7530    3.4900    3.1650 C.3    19  ILE19       0.0000
     10  CG2       -4.9520    4.5830    3.9180 C.3    19  ILE19       0.0000
     11  CG1       -6.8640    2.8460    4.0270 C.3    19  ILE19       0.0000
     12  CD1       -6.2950    2.0740    5.2450 C.3    19  ILE19       0.0000
     13  CB        -2.6100    5.6290   -0.6190 C.3    20  ILE20       0.0000
     14  CG2       -2.4720    6.6900    0.4690 C.3    20  ILE20       0.0000
     15  CG1       -1.6500    4.4070   -0.2650 C.3    20  ILE20       0.0000
     16  CD1       -0.1570    4.7470    0.0440 C.3    20  ILE20       0.0000
     17  CB        -6.1500    3.9150   -4.7040 C.3    21  TRP21       0.0066
     18  CG        -6.5780    2.9800   -5.8100 C.3    21  TRP21       0.0452
     19  CD1       -7.4550    3.2610   -6.7780 C.3    21  TRP21       0.1165
     20  NE1       -7.6110    2.2010   -7.6480 N.pl3  21  TRP21      -0.2376
     21  CE2       -6.8730    1.0990   -7.2020 C.ar   21  TRP21       0.0614
     22  CZ2       -6.8030   -0.2390   -7.6200 C.ar   21  TRP21       0.0158
     23  CH2       -5.9830   -1.1580   -6.9260 C.ar   21  TRP21       0.0013
     24  CZ3       -5.3220   -0.6620   -5.8020 C.ar   21  TRP21      -0.0002
     25  CE3       -5.2770    0.6770   -5.5110 C.ar   21  TRP21      -0.0030
     26  CD2       -6.0860    1.6060   -6.1130 C.ar   21  TRP21      -0.0059
@<TRIPOS>BOND
     1    22    23   ar
     2    22    21   ar
     3    23    24   ar
     4    21    20    1
     5    21    26   ar
     6    24    25   ar
     7    20    19    1
     8    25    26   ar
     9    26    18    1
    10    19    18    1
    11    18    17    1
    12     3     2    1
    13     2     4    1
    14     2     1    1
    15     5     6    1
    16     7     6   ar
    17    13    15    1
    18    13    14    1
    19    15    16    1
    20     6     8   ar
    21     9    11    1
    22     9    10    1
    23    11    12    1
@<TRIPOS>MOLECULE
16219006
 44 47 0 0 0
SMALL
GASTEIGER

@<TRIPOS>ATOM
      1 O          -4.9530   -0.5463    3.1456 O.2     1  PRO11      -0.2738
      2 O          -7.0695    0.4535   -0.4292 O.2     5  ASP55      -0.2735
      3 O          -5.3071    3.4136    0.3306 O.2     2  VAL22      -0.2738
      4 O          -3.9258   -2.3220   -2.9136 O.2     4  TRP44      -0.2738
      5 O          -1.9218    0.3061   -0.4067 O.2     3  LEU33      -0.2738
      6 OD1        -8.7992   -2.4042   -1.8317 O.co2   5  ASP55      -0.5497
      7 OD2        -9.9082   -1.0562   -3.2969 O.co2   5  ASP55      -0.5497
      8 N          -6.4060   -1.5651    0.3618 N.am    1  PRO11      -0.2884
      9 N          -6.1454    1.0635    2.0385 N.am    2  VAL22      -0.3022
     10 N          -5.2173   -0.4699   -2.4998 N.am    5  ASP55      -0.3021
     11 N          -3.3805    2.3258    0.9085 N.am    3  LEU33      -0.3025
     12 N          -2.9136    1.1050   -2.3165 N.am    4  TRP44      -0.3022
     13 NE1        -5.0927    2.3804   -5.9682 N.ar    4  TRP44      -0.3604
     14 CA         -6.8265   -1.2677    1.7293 C.3     1  PRO11       0.1023
     15 CB         -6.8167   -2.6264    2.4352 C.3     1  PRO11      -0.0243
     16 CG         -5.8031   -3.4389    1.6385 C.3     1  PRO11      -0.0350
     17 CD         -6.0351   -2.9615    0.2149 C.3     1  PRO11       0.0156
     18 C          -5.8735   -0.2435    2.3886 C.2     1  PRO11       0.2342
     19 C          -6.7354   -0.7156   -0.6747 C.2     5  ASP55       0.2369
     20 CA         -5.2974    2.1801    2.4346 C.3     2  VAL22       0.1017
     21 CA         -6.4551   -1.1744   -2.1258 C.3     5  ASP55       0.1047
     22 CB         -6.1060    3.2782    3.1589 C.3     2  VAL22      -0.0197
     23 CA         -2.7361    2.5878   -0.3697 C.3     3  LEU33       0.0996
     24 C          -4.6808    2.7224    1.1320 C.2     2  VAL22       0.2342
     25 CB         -7.5932   -0.7542   -3.0413 C.3     5  ASP55       0.0138
     26 CA         -2.8233   -0.1708   -3.0367 C.3     4  TRP44       0.1034
     27 CB         -1.4039    3.3281   -0.1941 C.3     3  LEU33      -0.0236
     28 CG         -1.5290    4.7410    0.4146 C.3     3  LEU33      -0.0446
     29 C          -4.0262   -1.1042   -2.7650 C.2     4  TRP44       0.2343
     30 CB         -2.6146    0.0454   -4.5451 C.3     4  TRP44       0.0013
     31 C          -2.4820    1.2163   -1.0146 C.2     3  LEU33       0.2340
     32 CG1        -5.2096    4.4680    3.5279 C.3     2  VAL22      -0.0605
     33 CG2        -6.7617    2.7348    4.4334 C.3     2  VAL22      -0.0605
     34 CG         -3.7327    0.7732   -5.2343 C.ar    4  TRP44      -0.0201
     35 CG         -8.8869   -1.4749   -2.6814 C.2     5  ASP55       0.0440
     36 CD1        -0.1355    5.3468    0.6056 C.3     3  LEU33      -0.0626
     37 CD2        -2.3800    5.6790   -0.4433 C.3     3  LEU33      -0.0626
     38 CD2        -4.8286    0.1694   -5.9322 C.ar    4  TRP44       0.0029
     39 CD1        -3.9142    2.1419   -5.3121 C.ar    4  TRP44       0.0060
     40 CE2        -5.6668    1.1965   -6.3633 C.ar    4  TRP44       0.0467
     41 CE3        -5.2013   -1.1626   -6.2071 C.ar    4  TRP44      -0.0523
     42 CZ2        -6.8674    0.9596   -7.0429 C.ar    4  TRP44      -0.0378
     43 CZ3        -6.3962   -1.4174   -6.8887 C.ar    4  TRP44      -0.0611
     44 CH2        -7.2181   -0.3697   -7.2942 C.ar    4  TRP44      -0.0598
@<TRIPOS>BOND
     1     1    18    2
     2     2    19    2
     3     3    24    2
     4     4    29    2
     5     5    31    2
     6     6    35   ar
     7     7    35   ar
     8     8    14    1
     9     8    17    1
    10     8    19   am
    11     9    18   am
    12     9    20    1
    13    10    21    1
    14    10    29   am
    15    11    23    1
    16    11    24   am
    17    12    26    1
    18    12    31   am
    19    13    39   ar
    20    13    40   ar
    21    14    15    1
    22    14    18    1
    23    15    16    1
    24    16    17    1
    25    19    21    1
    26    20    22    1
    27    20    24    1
    28    21    25    1
    29    22    32    1
    30    22    33    1
    31    23    27    1
    32    23    31    1
    33    25    35    1
    34    26    29    1
    35    26    30    1
    36    27    28    1
    37    28    36    1
    38    28    37    1
    39    30    34    1
    40    34    38   ar
    41    34    39   ar
    42    38    40   ar
    43    38    41   ar
    44    40    42   ar
    45    41    43   ar
    46    42    44   ar
    47    43    44   ar
@<TRIPOS>MOLECULE
../ET1/ET1_17-21_50CONFORMERS.pdb
 47 48 0 0 0
SMALL
GASTEIGER

@<TRIPOS>ATOM
      1  N         -4.1840    0.1700   -2.1080 N.3    17  LEU17      -0.1231
      2  CA        -5.4310   -0.5590   -2.2130 C.3    17  LEU17       0.1693
      3  CB        -5.4530   -1.5720   -1.0690 C.3    17  LEU17       0.0284
      4  CG        -6.6970   -2.4780   -1.0330 C.3    17  LEU17       0.0019
      5  CD1       -6.9020   -3.5380   -2.1700 C.3    17  LEU17       0.0001
      6  CD2       -6.6500   -3.2760    0.2870 C.3    17  LEU17       0.0001
      7  C         -6.6870    0.4050   -2.2250 C.2    17  LEU17       0.2592
      8  O         -7.4180    0.4050   -3.2490 O.2    17  LEU17      -0.2718
      9  N         -6.8100    1.2430   -1.2130 N.am   18  ASP18      -0.1960
     10  CA        -8.0140    1.9860   -0.8630 C.3    18  ASP18       0.1840
     11  CB        -8.9870    1.1020   -0.0360 C.3    18  ASP18       0.1450
     12  CG       -10.3760    1.8060    0.1000 C.2    18  ASP18       0.3671
     13  OD1      -11.2340    1.4710   -0.7260 O.co2  18  ASP18      -0.2456
     14  OD2      -10.5620    2.7020    1.0180 O.co2  18  ASP18      -0.2456
     15  C         -7.6500    3.2210   -0.1030 C.2    18  ASP18       0.2622
     16  O         -8.0810    4.3050   -0.4240 O.2    18  ASP18      -0.2715
     17  N         -6.9110    3.0370    1.0180 N.am   19  ILE19      -0.1963
     18  CA        -6.3970    4.0740    1.8940 C.3    19  ILE19       0.1727
     19  CB        -5.7530    3.4900    3.1650 C.3    19  ILE19       0.0290
     20  CG2       -4.9520    4.5830    3.9180 C.3    19  ILE19       0.0023
     21  CG1       -6.8640    2.8460    4.0270 C.3    19  ILE19       0.0022
     22  CD1       -6.2950    2.0740    5.2450 C.3    19  ILE19       0.0001
     23  C         -5.5560    5.0440    1.0520 C.2    19  ILE19       0.2616
     24  O         -5.7530    6.2870    1.0950 O.2    19  ILE19      -0.2715
     25  N         -4.6380    4.5410    0.2690 N.am   20  ILE20      -0.1963
     26  CA        -4.0580    5.1800   -0.8700 C.3    20  ILE20       0.1727
     27  CB        -2.6100    5.6290   -0.6190 C.3    20  ILE20       0.0290
     28  CG2       -2.4720    6.6900    0.4690 C.3    20  ILE20       0.0023
     29  CG1       -1.6500    4.4070   -0.2650 C.3    20  ILE20       0.0022
     30  CD1       -0.1570    4.7470    0.0440 C.3    20  ILE20       0.0001
     31  C         -4.1510    4.2950   -2.1670 C.2    20  ILE20       0.2617
     32  O         -4.1350    3.0460   -2.0390 O.2    20  ILE20      -0.2715
     33  N         -4.2910    4.9490   -3.3220 N.am   21  TRP21      -0.1941
     34  CA        -4.6580    4.2080   -4.6000 C.3    21  TRP21       0.1982
     35  CB        -6.1500    3.9150   -4.7040 C.3    21  TRP21       0.0394
     36  CG        -6.5780    2.9800   -5.8100 C.3    21  TRP21       0.0475
     37  CD1       -7.4550    3.2610   -6.7780 C.3    21  TRP21       0.1166
     38  NE1       -7.6110    2.2010   -7.6480 N.pl3  21  TRP21      -0.2376
     39  CE2       -6.8730    1.0990   -7.2020 C.ar   21  TRP21       0.0614
     40  CZ2       -6.8030   -0.2390   -7.6200 C.ar   21  TRP21       0.0158
     41  CH2       -5.9830   -1.1580   -6.9260 C.ar   21  TRP21       0.0013
     42  CZ3       -5.3220   -0.6620   -5.8020 C.ar   21  TRP21      -0.0002
     43  CE3       -5.2770    0.6770   -5.5110 C.ar   21  TRP21      -0.0030
     44  CD2       -6.0860    1.6060   -6.1130 C.ar   21  TRP21      -0.0059
     45  C         -4.1390    5.0410   -5.7810 C.2    21  TRP21       0.3842
     46  O         -3.4380    4.4880   -6.6810 O.co2  21  TRP21      -0.2437
     47  OXT       -4.3440    6.2890   -5.8160 O.co2  21  TRP21      -0.2437
@<TRIPOS>BOND
     1    40    41   ar
     2    40    39   ar
     3    41    42   ar
     4    39    38    1
     5    39    44   ar
     6    42    43   ar
     7    38    37    1
     8    43    44   ar
     9    44    36    1
    10    37    36    1
    11    36    35    1
    12    47    45   ar
    13     5     4    1
    14    35    34    1
    15    45    34    1
    16    45    46   ar
    17    34    33    1
    18     8     7    2
    19     4     6    1
    20     4     3    1
    21     2     3    1
    22     2     1    1
    23     2     7    1
    24     7     9   am
    25    33    31   am
    26    32    31    2
    27    31    26    1
    28     9    10    1
    29    10    11    1
    30    10    15    1
    31    26    27    1
    32    26    25    1
    33    11    12    1
    34    13    12   ar
    35    27    29    1
    36    27    28    1
    37    29    30    1
    38    16    15    2
    39    15    17   am
    40    12    14   ar
    41    25    23   am
    42    17    18    1
    43    23    24    2
    44    23    18    1
    45    18    19    1
    46    19    21    1
    47    19    20    1
    48    21    22    1
