@<TRIPOS>MOLECULE
../ET1/ET1_17-21_50CONFORMERS_NOBACKBONE.pdb
 26 23 0 0 0
SMALL
GASTEIGER

@<TRIPOS>ATOM
      1  CB        -6.1680   -1.6030   -0.8030 C.3    17  LEU17       0.0000
      2  CG        -7.3010   -2.6660   -0.9890 C.3    17  LEU17       0.0000
      3  CD1       -6.9130   -3.7970   -1.9630 C.3    17  LEU17       0.0000
      4  CD2       -7.4830   -3.2850    0.3370 C.3    17  LEU17       0.0000
      5  CB        -9.3270    1.4400   -1.0160 C.3    18  ASP18       0.1258
      6  CG       -10.6300    2.2090   -1.2500 C.2    18  ASP18       0.3654
      7  OD1      -11.0860    2.2920   -2.4490 O.co2  18  ASP18      -0.2456
      8  OD2      -11.2320    2.7130   -0.3400 O.co2  18  ASP18      -0.2456
      9  CB        -7.2480    4.9270    1.5370 C.3    19  ILE19       0.0000
     10  CG2       -6.8910    6.2680    2.1860 C.3    19  ILE19       0.0000
     11  CG1       -8.6480    4.4460    2.0860 C.3    19  ILE19       0.0000
     12  CD1       -8.7390    4.2860    3.5900 C.3    19  ILE19       0.0000
     13  CB        -2.4540    4.3920    0.1650 C.3    20  ILE20       0.0000
     14  CG2       -0.9250    4.3550   -0.2960 C.3    20  ILE20       0.0000
     15  CG1       -2.3670    5.0710    1.5310 C.3    20  ILE20       0.0000
     16  CD1       -3.4310    4.7860    2.5760 C.3    20  ILE20       0.0000
     17  CB        -4.3330    5.4990   -4.9470 C.3    21  TRP21       0.0066
     18  CG        -4.7390    4.8290   -6.1730 C.3    21  TRP21       0.0452
     19  CD1       -4.3830    5.3150   -7.3710 C.3    21  TRP21       0.1165
     20  NE1       -4.8840    4.4920   -8.3410 N.pl3  21  TRP21      -0.2376
     21  CE2       -5.5200    3.3960   -7.8350 C.ar   21  TRP21       0.0614
     22  CZ2       -6.2050    2.3030   -8.4580 C.ar   21  TRP21       0.0158
     23  CH2       -6.8150    1.3270   -7.6190 C.ar   21  TRP21       0.0013
     24  CZ3       -6.9630    1.6000   -6.2310 C.ar   21  TRP21      -0.0002
     25  CE3       -6.3060    2.7150   -5.5920 C.ar   21  TRP21      -0.0030
     26  CD2       -5.5210    3.6010   -6.4020 C.ar   21  TRP21      -0.0059
@<TRIPOS>BOND
     1    22    23   ar
     2    22    21   ar
     3    23    24   ar
     4    21    20    1
     5    21    26   ar
     6    24    25   ar
     7    20    19    1
     8    25    26   ar
     9    26    18    1
    10    19    18    1
    11    18    17    1
    12     3     2    1
    13     2     4    1
    14     2     1    1
    15     5     6    1
    16     7     6   ar
    17    13    15    1
    18    13    14    1
    19    15    16    1
    20     6     8   ar
    21     9    11    1
    22     9    10    1
    23    11    12    1
@<TRIPOS>MOLECULE
01178588C
 32 34 0 0 0
SMALL
GASTEIGER

@<TRIPOS>ATOM
      1 S          -9.8979    0.4520   -5.9050 S.O2    1  LIG11       0.0756
      2 C          -9.3410   -0.0219   -7.5182 C.ar    1  LIG11       0.1344
      3 N          -9.1979   -0.8001   -4.9964 N.pl3   1  LIG11      -0.1951
      4 O          -9.3303    1.7184   -5.5148 O.2     1  LIG11      -0.1499
      5 O         -11.3395    0.2674   -5.8959 O.2     1  LIG11      -0.1499
      6 C          -8.1634    0.4177   -8.1098 C.ar    1  LIG11       0.0975
      7 C         -10.1696   -0.9188   -8.2251 C.ar    1  LIG11      -0.0315
      8 C          -9.9554   -1.1447   -3.8509 C.ar    1  LIG11       0.2006
      9 C          -7.1757    1.3802   -7.5847 C.ar    1  LIG11       0.0023
     10 N          -7.8031   -0.0506   -9.3474 N.ar    1  LIG11      -0.2530
     11 C          -9.7990   -1.3716   -9.4836 C.ar    1  LIG11      -0.0417
     12 C         -10.0681   -0.3764   -2.6869 C.ar    1  LIG11       0.2574
     13 N         -10.5901   -2.3248   -4.0226 N.ar    1  LIG11      -0.2325
     14 C          -6.5420    1.2454   -6.3402 C.ar    1  LIG11      -0.0523
     15 C          -6.7790    2.4618   -8.3939 C.ar    1  LIG11      -0.0523
     16 C          -8.6088   -0.9133   -9.9991 C.ar    1  LIG11       0.0284
     17 N         -10.8563   -0.7674   -1.6533 N.ar    1  LIG11      -0.2137
     18 O          -9.3210    0.7738   -2.5788 O.3     1  LIG11      -0.4773
     19 C         -11.3917   -2.6863   -2.9942 C.ar    1  LIG11       0.0510
     20 C          -5.5901    2.1805   -5.9057 C.ar    1  LIG11      -0.0579
     21 C          -5.8159    3.3819   -7.9728 C.ar    1  LIG11      -0.0579
     22 C         -11.5327   -1.9293   -1.8320 C.ar    1  LIG11       0.0602
     23 C          -9.2598    1.2862   -1.2541 C.3     1  LIG11       0.0805
     24 C          -5.2171    3.2578   -6.7188 C.ar    1  LIG11      -0.0465
     25 C         -12.4533   -2.3810   -0.7421 C.3     1  LIG11      -0.0208
     26 C          -4.1799    4.2644   -6.2639 C.3     1  LIG11      -0.0174
     27 C          -4.7134    5.6357   -5.7911 C.3     1  LIG11       0.0085
     28 C          -5.2056    6.5124   -6.9745 C.2     1  LIG11       0.0477
     29 C          -3.5340    6.4645   -5.2430 C.3     1  LIG11      -0.0544
     30 C          -5.7592    5.4829   -4.6799 C.3     1  LIG11      -0.0544
     31 O          -6.2548    7.1877   -6.7683 O.co2   1  LIG11      -0.5493
     32 O          -4.4760    6.4975   -8.0094 O.co2   1  LIG11      -0.5493
@<TRIPOS>BOND
     1     1     5    2
     2     1     4    2
     3     1     3    1
     4     1     2    1
     5     2     6   ar
     6     2     7   ar
     7     3     8    1
     8     6    10   ar
     9     6     9    1
    10     7    11   ar
    11     8    12   ar
    12     8    13   ar
    13     9    14   ar
    14     9    15   ar
    15    10    16   ar
    16    11    16   ar
    17    12    17   ar
    18    12    18    1
    19    13    19   ar
    20    14    20   ar
    21    15    21   ar
    22    17    22   ar
    23    18    23    1
    24    19    22   ar
    25    20    24   ar
    26    21    24   ar
    27    22    25    1
    28    24    26    1
    29    26    27    1
    30    27    30    1
    31    27    29    1
    32    27    28    1
    33    28    32   ar
    34    28    31   ar
@<TRIPOS>MOLECULE
../ET1/ET1_17-21_50CONFORMERS.pdb
 47 48 0 0 0
SMALL
GASTEIGER

@<TRIPOS>ATOM
      1  N         -4.4070   -0.1580   -1.6100 N.3    17  LEU17      -0.1231
      2  CA        -5.6240   -0.8400   -1.9910 C.3    17  LEU17       0.1693
      3  CB        -6.1680   -1.6030   -0.8030 C.3    17  LEU17       0.0284
      4  CG        -7.3010   -2.6660   -0.9890 C.3    17  LEU17       0.0019
      5  CD1       -6.9130   -3.7970   -1.9630 C.3    17  LEU17       0.0001
      6  CD2       -7.4830   -3.2850    0.3370 C.3    17  LEU17       0.0001
      7  C         -6.6870    0.1230   -2.5080 C.2    17  LEU17       0.2592
      8  O         -7.3680   -0.2170   -3.4720 O.2    17  LEU17      -0.2718
      9  N         -7.0550    1.1550   -1.7250 N.am   18  ASP18      -0.1960
     10  CA        -8.2140    1.9780   -1.9970 C.3    18  ASP18       0.1840
     11  CB        -9.3270    1.4400   -1.0160 C.3    18  ASP18       0.1450
     12  CG       -10.6300    2.2090   -1.2500 C.2    18  ASP18       0.3671
     13  OD1      -11.0860    2.2920   -2.4490 O.co2  18  ASP18      -0.2456
     14  OD2      -11.2320    2.7130   -0.3400 O.co2  18  ASP18      -0.2456
     15  C         -7.8840    3.4890   -1.7310 C.2    18  ASP18       0.2622
     16  O         -8.1040    4.2530   -2.6550 O.2    18  ASP18      -0.2715
     17  N         -7.4380    3.8400   -0.5470 N.am   19  ILE19      -0.1963
     18  CA        -7.1780    5.1420    0.0290 C.3    19  ILE19       0.1727
     19  CB        -7.2480    4.9270    1.5370 C.3    19  ILE19       0.0290
     20  CG2       -6.8910    6.2680    2.1860 C.3    19  ILE19       0.0023
     21  CG1       -8.6480    4.4460    2.0860 C.3    19  ILE19       0.0022
     22  CD1       -8.7390    4.2860    3.5900 C.3    19  ILE19       0.0001
     23  C         -5.7780    5.6630   -0.5380 C.2    19  ILE19       0.2616
     24  O         -5.6970    6.7570   -1.0600 O.2    19  ILE19      -0.2715
     25  N         -4.7690    4.8050   -0.3150 N.am   20  ILE20      -0.1963
     26  CA        -3.4620    5.0020   -0.8160 C.3    20  ILE20       0.1727
     27  CB        -2.4540    4.3920    0.1650 C.3    20  ILE20       0.0290
     28  CG2       -0.9250    4.3550   -0.2960 C.3    20  ILE20       0.0023
     29  CG1       -2.3670    5.0710    1.5310 C.3    20  ILE20       0.0022
     30  CD1       -3.4310    4.7860    2.5760 C.3    20  ILE20       0.0001
     31  C         -3.2210    4.4080   -2.1730 C.2    20  ILE20       0.2617
     32  O         -3.6730    3.2860   -2.4590 O.2    20  ILE20      -0.2715
     33  N         -2.7570    5.2530   -3.1090 N.am   21  TRP21      -0.1941
     34  CA        -2.8960    5.1440   -4.5550 C.3    21  TRP21       0.1982
     35  CB        -4.3330    5.4990   -4.9470 C.3    21  TRP21       0.0394
     36  CG        -4.7390    4.8290   -6.1730 C.3    21  TRP21       0.0475
     37  CD1       -4.3830    5.3150   -7.3710 C.3    21  TRP21       0.1166
     38  NE1       -4.8840    4.4920   -8.3410 N.pl3  21  TRP21      -0.2376
     39  CE2       -5.5200    3.3960   -7.8350 C.ar   21  TRP21       0.0614
     40  CZ2       -6.2050    2.3030   -8.4580 C.ar   21  TRP21       0.0158
     41  CH2       -6.8150    1.3270   -7.6190 C.ar   21  TRP21       0.0013
     42  CZ3       -6.9630    1.6000   -6.2310 C.ar   21  TRP21      -0.0002
     43  CE3       -6.3060    2.7150   -5.5920 C.ar   21  TRP21      -0.0030
     44  CD2       -5.5210    3.6010   -6.4020 C.ar   21  TRP21      -0.0059
     45  C         -1.8100    6.0150   -5.1580 C.2    21  TRP21       0.3842
     46  O         -1.3610    5.7820   -6.2550 O.co2  21  TRP21      -0.2437
     47  OXT       -1.2950    6.9770   -4.4370 O.co2  21  TRP21      -0.2437
@<TRIPOS>BOND
     1    40    41   ar
     2    40    39   ar
     3    41    42   ar
     4    39    38    1
     5    39    44   ar
     6    42    43   ar
     7    38    37    1
     8    43    44   ar
     9    44    36    1
    10    37    36    1
    11    36    35    1
    12    47    45   ar
    13     5     4    1
    14    35    34    1
    15    45    34    1
    16    45    46   ar
    17    34    33    1
    18     8     7    2
    19     4     6    1
    20     4     3    1
    21     2     3    1
    22     2     1    1
    23     2     7    1
    24     7     9   am
    25    33    31   am
    26    32    31    2
    27    31    26    1
    28     9    10    1
    29    10    11    1
    30    10    15    1
    31    26    27    1
    32    26    25    1
    33    11    12    1
    34    13    12   ar
    35    27    29    1
    36    27    28    1
    37    29    30    1
    38    16    15    2
    39    15    17   am
    40    12    14   ar
    41    25    23   am
    42    17    18    1
    43    23    24    2
    44    23    18    1
    45    18    19    1
    46    19    21    1
    47    19    20    1
    48    21    22    1
