@<TRIPOS>MOLECULE
../ET1/ET1_17-21_50CONFORMERS_NOBACKBONE.pdb
 26 23 0 0 0
SMALL
GASTEIGER

@<TRIPOS>ATOM
      1  CB        -6.0910   -1.6180   -1.3980 C.3    17  LEU17       0.0000
      2  CG        -7.1940   -2.5360   -1.9300 C.3    17  LEU17       0.0000
      3  CD1       -6.7940   -3.3700   -3.1490 C.3    17  LEU17       0.0000
      4  CD2       -7.6880   -3.5890   -0.9250 C.3    17  LEU17       0.0000
      5  CB        -9.2050    1.7950   -0.5390 C.3    18  ASP18       0.1258
      6  CG       -10.3200    2.7850   -0.5550 C.2    18  ASP18       0.3654
      7  OD1      -11.0210    2.7300   -1.6150 O.co2  18  ASP18      -0.2456
      8  OD2      -10.4710    3.5410    0.4120 O.co2  18  ASP18      -0.2456
      9  CB        -4.9810    4.1540    2.2170 C.3    19  ILE19       0.0000
     10  CG2       -4.0530    5.3090    2.7190 C.3    19  ILE19       0.0000
     11  CG1       -5.7910    3.4760    3.3290 C.3    19  ILE19       0.0000
     12  CD1       -4.8670    2.8100    4.3570 C.3    19  ILE19       0.0000
     13  CB        -2.0910    5.4810   -1.4650 C.3    20  ILE20       0.0000
     14  CG2       -1.9860    6.7460   -0.5500 C.3    20  ILE20       0.0000
     15  CG1       -1.4960    4.2170   -0.7850 C.3    20  ILE20       0.0000
     16  CD1        0.0110    4.2170   -0.4870 C.3    20  ILE20       0.0000
     17  CB        -5.0110    4.3230   -5.9680 C.3    21  TRP21       0.0066
     18  CG        -5.3960    3.4640   -7.1630 C.3    21  TRP21       0.0452
     19  CD1       -5.6040    3.8300   -8.4930 C.3    21  TRP21       0.1165
     20  NE1       -5.9490    2.6430   -9.2160 N.pl3  21  TRP21      -0.2376
     21  CE2       -5.6830    1.5430   -8.4990 C.ar   21  TRP21       0.0614
     22  CZ2       -5.7540    0.1720   -8.7210 C.ar   21  TRP21       0.0158
     23  CH2       -5.4780   -0.7730   -7.7240 C.ar   21  TRP21       0.0013
     24  CZ3       -5.2550   -0.3200   -6.3820 C.ar   21  TRP21      -0.0002
     25  CE3       -5.1180    1.0670   -6.1140 C.ar   21  TRP21      -0.0030
     26  CD2       -5.3540    2.0190   -7.1840 C.ar   21  TRP21      -0.0059
@<TRIPOS>BOND
     1    22    23   ar
     2    22    21   ar
     3    23    24   ar
     4    21    20    1
     5    21    26   ar
     6    24    25   ar
     7    20    19    1
     8    25    26   ar
     9    26    18    1
    10    19    18    1
    11    18    17    1
    12     3     2    1
    13     2     4    1
    14     2     1    1
    15     5     6    1
    16     7     6   ar
    17    13    15    1
    18    13    14    1
    19    15    16    1
    20     6     8   ar
    21     9    11    1
    22     9    10    1
    23    11    12    1
@<TRIPOS>MOLECULE
HTS1204-03362316-01
 44 47 0 0 0
SMALL
USER_CHARGES

@<TRIPOS>ATOM
      1 C1         -4.8164    0.4594   -5.1650 C.ar    1  UNK11      -0.0199
      2 N1         -5.1904   -1.5416   -6.0880 N.ar    1  UNK11      -0.3494
      3 C2         -4.0062    2.8491    0.2303 C.2     1  UNK11       0.3028
      4 C3         -4.8218   -0.9002   -4.9381 C.ar    1  UNK11       0.0086
      5 C4         -5.2826    0.3724   -2.0348 C.2     1  UNK11       0.2342
      6 C5         -5.1503    0.6343   -6.5496 C.ar    1  UNK11       0.0031
      7 C6         -1.8002    1.0585   -1.8668 C.2     1  UNK11       0.2340
      8 C7         -5.3809   -0.6294   -7.1012 C.ar    1  UNK11       0.0491
      9 N2         -2.7875    2.2441    0.1234 N.am    1  UNK11      -0.2879
     10 N3         -4.7183    2.5150    1.3697 N.am    1  UNK11      -0.2856
     11 N4         -2.8500    0.6640   -2.6373 N.am    1  UNK11      -0.3022
     12 N5         -4.7842   -0.5349   -1.1400 N.am    1  UNK11      -0.3054
     13 C8         -4.2047    1.2173   -2.7449 C.3     1  UNK11       0.1034
     14 C9         -1.8284    2.3382   -0.9811 C.3     1  UNK11       0.1011
     15 C10        -5.5862   -1.5034   -0.3754 C.3     1  UNK11       0.0680
     16 C11        -4.5838    1.5767   -4.1876 C.3     1  UNK11       0.0013
     17 C12        -4.8454   -2.0752    0.8716 C.2     1  UNK11       0.0623
     18 C13        -6.1392   -2.6350   -1.2547 C.3     1  UNK11       0.0133
     19 O1         -4.4472    3.6434   -0.5955 O.2     1  UNK11      -0.2526
     20 O2         -0.7575    0.3974   -1.9549 O.2     1  UNK11      -0.2738
     21 O3         -6.4895    0.5614   -2.1966 O.2     1  UNK11      -0.2738
     22 N6         -3.9746   -3.1541   -2.3415 N.ar    1  UNK11      -0.2598
     23 O4         -3.7638   -1.4761    1.1699 O.co2   1  UNK11      -0.5479
     24 C14        -1.7916    3.6071   -1.8618 C.3     1  UNK11      -0.0236
     25 C15        -5.1330   -3.6241   -1.8135 C.ar    1  UNK11       0.0434
     26 O5         -5.4273   -3.0227    1.4756 O.co2   1  UNK11      -0.5479
     27 C16        -5.3929   -2.9689   -6.1886 C.3     1  UNK11       0.0119
     28 C17        -4.1121    1.9305    2.5721 C.3     1  UNK11       0.0161
     29 C18        -6.1291    2.8703    1.4185 C.3     1  UNK11       0.0161
     30 C19        -5.7555   -0.8009   -8.4433 C.ar    1  UNK11      -0.0376
     31 C20        -5.3023    1.7697   -7.3736 C.ar    1  UNK11      -0.0523
     32 C21        -1.2002    4.9066   -1.2670 C.3     1  UNK11      -0.0446
     33 C22        -3.1201   -4.0470   -2.8850 C.ar    1  UNK11       0.0279
     34 C23        -5.4722   -4.9754   -1.8870 C.ar    1  UNK11      -0.0403
     35 C24        -2.1235    5.6144   -0.2794 C.3     1  UNK11      -0.0626
     36 C25         0.1850    4.7164   -0.6511 C.3     1  UNK11      -0.0626
     37 C26        -4.8635    2.2011    3.8798 C.3     1  UNK11      -0.0371
     38 C27        -6.3711    4.2241    2.0879 C.3     1  UNK11      -0.0371
     39 C28        -5.6746    1.6106   -8.7121 C.ar    1  UNK11      -0.0611
     40 C29        -5.8986    0.3414   -9.2368 C.ar    1  UNK11      -0.0598
     41 C30        -3.3830   -5.4010   -2.9891 C.ar    1  UNK11      -0.0436
     42 C31        -4.5873   -5.8708   -2.4839 C.ar    1  UNK11      -0.0586
     43 C32        -5.0449    3.6771    4.2466 C.3     1  UNK11      -0.0516
     44 C33        -5.3106    4.6543    3.1022 C.3     1  UNK11      -0.0516
@<TRIPOS>BOND
     1     2     4   ar
     2     3     9   am
     3     1     4   ar
     4     5    13    1
     5     1     6   ar
     6     7    11   am
     7     6     8   ar
     8     9    14    1
     9     3    10   am
    10    11    13    1
    11     5    12   am
    12    13    16    1
    13     7    14    1
    14    12    15    1
    15     1    16    1
    16    15    17    1
    17    15    18    1
    18     3    19    2
    19     7    20    2
    20     5    21    2
    21    22    25   ar
    22    17    23   ar
    23    14    24    1
    24    18    25    1
    25    17    26   ar
    26     2    27    1
    27    10    28    1
    28    10    29    1
    29     8    30   ar
    30     6    31   ar
    31    24    32    1
    32    22    33   ar
    33    25    34   ar
    34    32    35    1
    35    32    36    1
    36    28    37    1
    37    29    38    1
    38    31    39   ar
    39    39    40   ar
    40    41    42   ar
    41    34    42   ar
    42    37    43    1
    43    38    44    1
    44     2     8   ar
    45    30    40   ar
    46    33    41   ar
    47    43    44    1
@<TRIPOS>MOLECULE
../ET1/ET1_17-21_50CONFORMERS.pdb
 47 48 0 0 0
SMALL
GASTEIGER

@<TRIPOS>ATOM
      1  N         -4.3360    0.0210   -1.6350 N.3    17  LEU17      -0.1231
      2  CA        -5.5740   -0.4820   -2.2450 C.3    17  LEU17       0.1693
      3  CB        -6.0910   -1.6180   -1.3980 C.3    17  LEU17       0.0284
      4  CG        -7.1940   -2.5360   -1.9300 C.3    17  LEU17       0.0019
      5  CD1       -6.7940   -3.3700   -3.1490 C.3    17  LEU17       0.0001
      6  CD2       -7.6880   -3.5890   -0.9250 C.3    17  LEU17       0.0001
      7  C         -6.7280    0.5290   -2.3580 C.2    17  LEU17       0.2592
      8  O         -7.4990    0.5240   -3.3000 O.2    17  LEU17      -0.2718
      9  N         -6.9180    1.3590   -1.3630 N.am   18  ASP18      -0.1960
     10  CA        -7.9590    2.3730   -1.2220 C.3    18  ASP18       0.1840
     11  CB        -9.2050    1.7950   -0.5390 C.3    18  ASP18       0.1450
     12  CG       -10.3200    2.7850   -0.5550 C.2    18  ASP18       0.3671
     13  OD1      -11.0210    2.7300   -1.6150 O.co2  18  ASP18      -0.2456
     14  OD2      -10.4710    3.5410    0.4120 O.co2  18  ASP18      -0.2456
     15  C         -7.4480    3.6540   -0.5780 C.2    18  ASP18       0.2622
     16  O         -7.7580    4.7430   -1.0410 O.2    18  ASP18      -0.2715
     17  N         -6.6220    3.5120    0.4740 N.am   19  ILE19      -0.1963
     18  CA        -5.9360    4.6640    1.0770 C.3    19  ILE19       0.1727
     19  CB        -4.9810    4.1540    2.2170 C.3    19  ILE19       0.0290
     20  CG2       -4.0530    5.3090    2.7190 C.3    19  ILE19       0.0023
     21  CG1       -5.7910    3.4760    3.3290 C.3    19  ILE19       0.0022
     22  CD1       -4.8670    2.8100    4.3570 C.3    19  ILE19       0.0001
     23  C         -5.1600    5.4290    0.0000 C.2    19  ILE19       0.2616
     24  O         -5.3650    6.6380   -0.1130 O.2    19  ILE19      -0.2715
     25  N         -4.3550    4.7180   -0.7820 N.am   20  ILE20      -0.1963
     26  CA        -3.5620    5.1550   -1.8730 C.3    20  ILE20       0.1727
     27  CB        -2.0910    5.4810   -1.4650 C.3    20  ILE20       0.0290
     28  CG2       -1.9860    6.7460   -0.5500 C.3    20  ILE20       0.0023
     29  CG1       -1.4960    4.2170   -0.7850 C.3    20  ILE20       0.0022
     30  CD1        0.0110    4.2170   -0.4870 C.3    20  ILE20       0.0001
     31  C         -3.6680    4.2220   -3.0430 C.2    20  ILE20       0.2617
     32  O         -3.6650    2.9720   -2.8760 O.2    20  ILE20      -0.2715
     33  N         -3.5890    4.8530   -4.2030 N.am   21  TRP21      -0.1941
     34  CA        -3.5660    4.1980   -5.4940 C.3    21  TRP21       0.1982
     35  CB        -5.0110    4.3230   -5.9680 C.3    21  TRP21       0.0394
     36  CG        -5.3960    3.4640   -7.1630 C.3    21  TRP21       0.0475
     37  CD1       -5.6040    3.8300   -8.4930 C.3    21  TRP21       0.1166
     38  NE1       -5.9490    2.6430   -9.2160 N.pl3  21  TRP21      -0.2376
     39  CE2       -5.6830    1.5430   -8.4990 C.ar   21  TRP21       0.0614
     40  CZ2       -5.7540    0.1720   -8.7210 C.ar   21  TRP21       0.0158
     41  CH2       -5.4780   -0.7730   -7.7240 C.ar   21  TRP21       0.0013
     42  CZ3       -5.2550   -0.3200   -6.3820 C.ar   21  TRP21      -0.0002
     43  CE3       -5.1180    1.0670   -6.1140 C.ar   21  TRP21      -0.0030
     44  CD2       -5.3540    2.0190   -7.1840 C.ar   21  TRP21      -0.0059
     45  C         -2.6690    4.8410   -6.5150 C.2    21  TRP21       0.3842
     46  O         -1.9570    4.1290   -7.1910 O.co2  21  TRP21      -0.2437
     47  OXT       -2.6800    6.0900   -6.6540 O.co2  21  TRP21      -0.2437
@<TRIPOS>BOND
     1    40    41   ar
     2    40    39   ar
     3    41    42   ar
     4    39    38    1
     5    39    44   ar
     6    42    43   ar
     7    38    37    1
     8    43    44   ar
     9    44    36    1
    10    37    36    1
    11    36    35    1
    12    47    45   ar
    13     5     4    1
    14    35    34    1
    15    45    34    1
    16    45    46   ar
    17    34    33    1
    18     8     7    2
    19     4     6    1
    20     4     3    1
    21     2     3    1
    22     2     1    1
    23     2     7    1
    24     7     9   am
    25    33    31   am
    26    32    31    2
    27    31    26    1
    28     9    10    1
    29    10    11    1
    30    10    15    1
    31    26    27    1
    32    26    25    1
    33    11    12    1
    34    13    12   ar
    35    27    29    1
    36    27    28    1
    37    29    30    1
    38    16    15    2
    39    15    17   am
    40    12    14   ar
    41    25    23   am
    42    17    18    1
    43    23    24    2
    44    23    18    1
    45    18    19    1
    46    19    21    1
    47    19    20    1
    48    21    22    1
