@<TRIPOS>MOLECULE
../ET1/ET1_17-21_50CONFORMERS_NOBACKBONE.pdb
 26 23 0 0 0
SMALL
GASTEIGER

@<TRIPOS>ATOM
      1  CB        -6.0380   -1.5180   -0.0370 C.3    17  LEU17       0.0000
      2  CG        -7.1840   -2.4290   -0.2350 C.3    17  LEU17       0.0000
      3  CD1       -6.7970   -3.5870   -1.1730 C.3    17  LEU17       0.0000
      4  CD2       -7.8660   -3.1100    0.9420 C.3    17  LEU17       0.0000
      5  CB        -9.2220    2.1420    0.8650 C.3    18  ASP18       0.1258
      6  CG       -10.4510    3.0160    0.7920 C.2    18  ASP18       0.3654
      7  OD1      -11.1710    2.9190   -0.1710 O.co2  18  ASP18      -0.2456
      8  OD2      -10.5970    3.8410    1.7050 O.co2  18  ASP18      -0.2456
      9  CB        -5.7050    5.4320    2.5820 C.3    19  ILE19       0.0000
     10  CG2       -4.5690    4.4470    2.6960 C.3    19  ILE19       0.0000
     11  CG1       -5.3120    6.7960    3.2120 C.3    19  ILE19       0.0000
     12  CD1       -6.5720    7.7280    3.3490 C.3    19  ILE19       0.0000
     13  CB        -2.1810    5.4270   -1.2910 C.3    20  ILE20       0.0000
     14  CG2       -1.7020    6.8010   -0.7900 C.3    20  ILE20       0.0000
     15  CG1       -1.6700    4.3770   -0.2680 C.3    20  ILE20       0.0000
     16  CD1       -0.2050    4.1190   -0.3350 C.3    20  ILE20       0.0000
     17  CB        -6.5390    3.3040   -4.4160 C.3    21  TRP21       0.0066
     18  CG        -7.2490    2.3830   -5.4230 C.3    21  TRP21       0.0452
     19  CD1       -8.3550    2.7960   -6.1520 C.3    21  TRP21       0.1165
     20  NE1       -8.8630    1.7830   -6.9380 N.pl3  21  TRP21      -0.2376
     21  CE2       -8.0920    0.6800   -6.7530 C.ar   21  TRP21       0.0614
     22  CZ2       -8.2090   -0.5880   -7.3570 C.ar   21  TRP21       0.0158
     23  CH2       -7.2400   -1.5830   -7.0600 C.ar   21  TRP21       0.0013
     24  CZ3       -6.2600   -1.2970   -6.0270 C.ar   21  TRP21      -0.0002
     25  CE3       -6.2230   -0.0490   -5.4100 C.ar   21  TRP21      -0.0030
     26  CD2       -7.0720    0.9930   -5.8380 C.ar   21  TRP21      -0.0059
@<TRIPOS>BOND
     1    22    23   ar
     2    22    21   ar
     3    23    24   ar
     4    21    20    1
     5    21    26   ar
     6    24    25   ar
     7    20    19    1
     8    25    26   ar
     9    26    18    1
    10    19    18    1
    11    18    17    1
    12     3     2    1
    13     2     4    1
    14     2     1    1
    15     5     6    1
    16     7     6   ar
    17    13    15    1
    18    13    14    1
    19    15    16    1
    20     6     8   ar
    21     9    11    1
    22     9    10    1
    23    11    12    1
@<TRIPOS>MOLECULE
2-[[2-[2-butyl-4-[(Z)-2-carboxy-3-(6-methoxy-1,3-benzodioxol-5-yl)prop-1-enyl]pyrazol-3-yl]-5-methoxyphenoxy]methyl]benzoic acid
 45 49 0 0 0
SMALL
GASTEIGER

@<TRIPOS>ATOM
      1 O          -4.1428    5.6690   -6.8771 O.3     1  LIG11      -0.4866
      2 O          -9.2228   -1.3721   -7.7420 O.3     1  LIG11      -0.4526
      3 O          -7.1364   -2.4927   -8.1809 O.3     1  LIG11      -0.4525
      4 O          -4.7993    0.3301   -4.9555 O.3     1  LIG11      -0.4947
      5 O          -0.1937    3.5068   -8.1213 O.3     1  LIG11      -0.4950
      6 O          -9.5316    3.2348   -5.9054 O.co2   1  LIG11      -0.5449
      7 O          -8.0483    3.3671   -7.6327 O.co2   1  LIG11      -0.5449
      8 O          -4.6604    9.3660   -4.8281 O.co2   1  LIG11      -0.5446
      9 O          -6.8172   10.0221   -5.0015 O.co2   1  LIG11      -0.5446
     10 N          -3.8358    4.6458   -2.8307 N.ar    1  LIG11      -0.2630
     11 N          -4.9024    4.8159   -2.0196 N.ar    1  LIG11      -0.1785
     12 C          -4.1673    4.4065   -4.1638 C.ar    1  LIG11       0.0795
     13 C          -2.5198    4.5236   -2.2202 C.3     1  LIG11       0.0422
     14 C          -2.3134    5.1754   -0.8439 C.3     1  LIG11      -0.0336
     15 C          -5.5524    4.4498   -4.1734 C.ar    1  LIG11       0.0207
     16 C          -3.1797    4.1549   -5.2287 C.ar    1  LIG11       0.0425
     17 C          -1.2781    4.4290    0.0081 C.3     1  LIG11      -0.0542
     18 C          -5.9379    4.7629   -2.8556 C.ar    1  LIG11       0.0571
     19 C          -6.4609    4.2404   -5.2502 C.2     1  LIG11      -0.0459
     20 C          -7.1863    1.8685   -4.6098 C.3     1  LIG11       0.0029
     21 C          -3.1301    4.8651   -6.4372 C.ar    1  LIG11       0.1336
     22 C          -7.2300    3.1445   -5.4089 C.2     1  LIG11      -0.0200
     23 C          -7.1027    0.6078   -5.4636 C.ar    1  LIG11       0.0023
     24 C          -2.2180    3.1460   -5.0358 C.ar    1  LIG11      -0.0456
     25 C           0.0965    4.3230   -0.6327 C.3     1  LIG11      -0.0652
     26 C          -2.1176    4.6057   -7.3768 C.ar    1  LIG11       0.0224
     27 C          -5.8865   -0.0934   -5.6793 C.ar    1  LIG11       0.1273
     28 C          -8.2797    0.1725   -6.1119 C.ar    1  LIG11      -0.0092
     29 C          -1.1973    2.9029   -5.9628 C.ar    1  LIG11      -0.0191
     30 C          -8.1989   -0.8704   -7.0013 C.ar    1  LIG11       0.1667
     31 C          -1.1333    3.6464   -7.1354 C.ar    1  LIG11       0.1236
     32 C          -7.0109   -1.5108   -7.2435 C.ar    1  LIG11       0.1697
     33 C          -5.8469   -1.1631   -6.5892 C.ar    1  LIG11       0.0258
     34 C          -8.3766    3.2847   -6.4139 C.2     1  LIG11       0.0680
     35 C          -4.1350    7.0188   -6.3782 C.3     1  LIG11       0.1153
     36 C          -8.5029   -2.2756   -8.5948 C.3     1  LIG11       0.2332
     37 C          -4.9966    7.8532   -7.3203 C.ar    1  LIG11      -0.0016
     38 C          -5.8147    8.9127   -6.8639 C.ar    1  LIG11       0.0037
     39 C          -4.9924    7.5479   -8.7006 C.ar    1  LIG11      -0.0547
     40 C          -3.6115   -0.4387   -5.0588 C.3     1  LIG11       0.0788
     41 C          -6.6910    9.5305   -7.7822 C.ar    1  LIG11      -0.0525
     42 C          -5.8357    8.2043   -9.5979 C.ar    1  LIG11      -0.0614
     43 C           0.8298    2.5469   -7.8955 C.3     1  LIG11       0.0788
     44 C          -6.7069    9.1783   -9.1325 C.ar    1  LIG11      -0.0611
     45 C          -5.7705    9.4483   -5.4457 C.2     1  LIG11       0.0720
@<TRIPOS>BOND
     1     1    35    1
     2     1    21    1
     3     2    36    1
     4     2    30    1
     5     3    32    1
     6     3    36    1
     7     4    27    1
     8     4    40    1
     9     5    31    1
    10     5    43    1
    11     6    34   ar
    12     7    34   ar
    13     8    45   ar
    14     9    45   ar
    15    10    11   ar
    16    10    12   ar
    17    10    13    1
    18    11    18   ar
    19    12    15   ar
    20    13    14    1
    21    14    17    1
    22    15    18   ar
    23    15    19    1
    24    16    24   ar
    25    16    21   ar
    26    16    12    1
    27    17    25    1
    28    19    22    2
    29    20    22    1
    30    20    23    1
    31    21    26   ar
    32    22    34    1
    33    23    28   ar
    34    23    27   ar
    35    24    29   ar
    36    26    31   ar
    37    27    33   ar
    38    28    30   ar
    39    29    31   ar
    40    30    32   ar
    41    32    33   ar
    42    35    37    1
    43    37    39   ar
    44    37    38   ar
    45    38    41   ar
    46    38    45    1
    47    39    42   ar
    48    41    44   ar
    49    42    44   ar
@<TRIPOS>MOLECULE
../ET1/ET1_17-21_50CONFORMERS.pdb
 47 48 0 0 0
SMALL
GASTEIGER

@<TRIPOS>ATOM
      1  N         -4.4120    0.0600   -1.0240 N.3    17  LEU17      -0.1231
      2  CA        -5.8150   -0.5190   -1.1630 C.3    17  LEU17       0.1693
      3  CB        -6.0380   -1.5180   -0.0370 C.3    17  LEU17       0.0284
      4  CG        -7.1840   -2.4290   -0.2350 C.3    17  LEU17       0.0019
      5  CD1       -6.7970   -3.5870   -1.1730 C.3    17  LEU17       0.0001
      6  CD2       -7.8660   -3.1100    0.9420 C.3    17  LEU17       0.0001
      7  C         -6.9320    0.5370   -1.3110 C.2    17  LEU17       0.2592
      8  O         -7.7610    0.4630   -2.2150 O.2    17  LEU17      -0.2718
      9  N         -7.1210    1.4070   -0.2900 N.am   18  ASP18      -0.1960
     10  CA        -8.2550    2.3870   -0.2680 C.3    18  ASP18       0.1840
     11  CB        -9.2220    2.1420    0.8650 C.3    18  ASP18       0.1450
     12  CG       -10.4510    3.0160    0.7920 C.2    18  ASP18       0.3671
     13  OD1      -11.1710    2.9190   -0.1710 O.co2  18  ASP18      -0.2456
     14  OD2      -10.5970    3.8410    1.7050 O.co2  18  ASP18      -0.2456
     15  C         -7.7530    3.7960   -0.1690 C.2    18  ASP18       0.2622
     16  O         -8.1350    4.6240   -0.9530 O.2    18  ASP18      -0.2715
     17  N         -6.9590    4.1300    0.8310 N.am   19  ILE19      -0.1963
     18  CA        -6.3530    5.4560    1.1480 C.3    19  ILE19       0.1727
     19  CB        -5.7050    5.4320    2.5820 C.3    19  ILE19       0.0290
     20  CG2       -4.5690    4.4470    2.6960 C.3    19  ILE19       0.0023
     21  CG1       -5.3120    6.7960    3.2120 C.3    19  ILE19       0.0022
     22  CD1       -6.5720    7.7280    3.3490 C.3    19  ILE19       0.0001
     23  C         -5.2830    6.0050    0.1410 C.2    19  ILE19       0.2616
     24  O         -5.0530    7.2120    0.0400 O.2    19  ILE19      -0.2715
     25  N         -4.5780    5.0880   -0.5010 N.am   20  ILE20      -0.1963
     26  CA        -3.7350    5.3890   -1.6400 C.3    20  ILE20       0.1727
     27  CB        -2.1810    5.4270   -1.2910 C.3    20  ILE20       0.0290
     28  CG2       -1.7020    6.8010   -0.7900 C.3    20  ILE20       0.0023
     29  CG1       -1.6700    4.3770   -0.2680 C.3    20  ILE20       0.0022
     30  CD1       -0.2050    4.1190   -0.3350 C.3    20  ILE20       0.0001
     31  C         -4.0940    4.4380   -2.7850 C.2    20  ILE20       0.2617
     32  O         -3.6300    3.2730   -2.7920 O.2    20  ILE20      -0.2715
     33  N         -4.8770    4.9360   -3.7880 N.am   21  TRP21      -0.1941
     34  CA        -5.3760    4.2020   -4.9720 C.3    21  TRP21       0.1982
     35  CB        -6.5390    3.3040   -4.4160 C.3    21  TRP21       0.0394
     36  CG        -7.2490    2.3830   -5.4230 C.3    21  TRP21       0.0475
     37  CD1       -8.3550    2.7960   -6.1520 C.3    21  TRP21       0.1166
     38  NE1       -8.8630    1.7830   -6.9380 N.pl3  21  TRP21      -0.2376
     39  CE2       -8.0920    0.6800   -6.7530 C.ar   21  TRP21       0.0614
     40  CZ2       -8.2090   -0.5880   -7.3570 C.ar   21  TRP21       0.0158
     41  CH2       -7.2400   -1.5830   -7.0600 C.ar   21  TRP21       0.0013
     42  CZ3       -6.2600   -1.2970   -6.0270 C.ar   21  TRP21      -0.0002
     43  CE3       -6.2230   -0.0490   -5.4100 C.ar   21  TRP21      -0.0030
     44  CD2       -7.0720    0.9930   -5.8380 C.ar   21  TRP21      -0.0059
     45  C         -5.7150    5.0760   -6.2070 C.2    21  TRP21       0.3842
     46  O         -6.4530    6.0880   -6.0380 O.co2  21  TRP21      -0.2437
     47  OXT       -5.3280    4.6980   -7.3490 O.co2  21  TRP21      -0.2437
@<TRIPOS>BOND
     1    40    41   ar
     2    40    39   ar
     3    41    42   ar
     4    39    38    1
     5    39    44   ar
     6    42    43   ar
     7    38    37    1
     8    43    44   ar
     9    44    36    1
    10    37    36    1
    11    36    35    1
    12    47    45   ar
    13     5     4    1
    14    35    34    1
    15    45    34    1
    16    45    46   ar
    17    34    33    1
    18     8     7    2
    19     4     6    1
    20     4     3    1
    21     2     3    1
    22     2     1    1
    23     2     7    1
    24     7     9   am
    25    33    31   am
    26    32    31    2
    27    31    26    1
    28     9    10    1
    29    10    11    1
    30    10    15    1
    31    26    27    1
    32    26    25    1
    33    11    12    1
    34    13    12   ar
    35    27    29    1
    36    27    28    1
    37    29    30    1
    38    16    15    2
    39    15    17   am
    40    12    14   ar
    41    25    23   am
    42    17    18    1
    43    23    24    2
    44    23    18    1
    45    18    19    1
    46    19    21    1
    47    19    20    1
    48    21    22    1
