@<TRIPOS>MOLECULE
../ET1/ET1_17-21_50CONFORMERS_NOBACKBONE.pdb
 26 23 0 0 0
SMALL
GASTEIGER

@<TRIPOS>ATOM
      1  CB        -6.0910   -1.6180   -1.3980 C.3    17  LEU17       0.0000
      2  CG        -7.1940   -2.5360   -1.9300 C.3    17  LEU17       0.0000
      3  CD1       -6.7940   -3.3700   -3.1490 C.3    17  LEU17       0.0000
      4  CD2       -7.6880   -3.5890   -0.9250 C.3    17  LEU17       0.0000
      5  CB        -9.2050    1.7950   -0.5390 C.3    18  ASP18       0.1258
      6  CG       -10.3200    2.7850   -0.5550 C.2    18  ASP18       0.3654
      7  OD1      -11.0210    2.7300   -1.6150 O.co2  18  ASP18      -0.2456
      8  OD2      -10.4710    3.5410    0.4120 O.co2  18  ASP18      -0.2456
      9  CB        -4.9810    4.1540    2.2170 C.3    19  ILE19       0.0000
     10  CG2       -4.0530    5.3090    2.7190 C.3    19  ILE19       0.0000
     11  CG1       -5.7910    3.4760    3.3290 C.3    19  ILE19       0.0000
     12  CD1       -4.8670    2.8100    4.3570 C.3    19  ILE19       0.0000
     13  CB        -2.0910    5.4810   -1.4650 C.3    20  ILE20       0.0000
     14  CG2       -1.9860    6.7460   -0.5500 C.3    20  ILE20       0.0000
     15  CG1       -1.4960    4.2170   -0.7850 C.3    20  ILE20       0.0000
     16  CD1        0.0110    4.2170   -0.4870 C.3    20  ILE20       0.0000
     17  CB        -5.0110    4.3230   -5.9680 C.3    21  TRP21       0.0066
     18  CG        -5.3960    3.4640   -7.1630 C.3    21  TRP21       0.0452
     19  CD1       -5.6040    3.8300   -8.4930 C.3    21  TRP21       0.1165
     20  NE1       -5.9490    2.6430   -9.2160 N.pl3  21  TRP21      -0.2376
     21  CE2       -5.6830    1.5430   -8.4990 C.ar   21  TRP21       0.0614
     22  CZ2       -5.7540    0.1720   -8.7210 C.ar   21  TRP21       0.0158
     23  CH2       -5.4780   -0.7730   -7.7240 C.ar   21  TRP21       0.0013
     24  CZ3       -5.2550   -0.3200   -6.3820 C.ar   21  TRP21      -0.0002
     25  CE3       -5.1180    1.0670   -6.1140 C.ar   21  TRP21      -0.0030
     26  CD2       -5.3540    2.0190   -7.1840 C.ar   21  TRP21      -0.0059
@<TRIPOS>BOND
     1    22    23   ar
     2    22    21   ar
     3    23    24   ar
     4    21    20    1
     5    21    26   ar
     6    24    25   ar
     7    20    19    1
     8    25    26   ar
     9    26    18    1
    10    19    18    1
    11    18    17    1
    12     3     2    1
    13     2     4    1
    14     2     1    1
    15     5     6    1
    16     7     6   ar
    17    13    15    1
    18    13    14    1
    19    15    16    1
    20     6     8   ar
    21     9    11    1
    22     9    10    1
    23    11    12    1
@<TRIPOS>MOLECULE
*****
 39 42 0 0 0
SMALL
GASTEIGER

@<TRIPOS>ATOM
      1 C          -1.5437    5.9512   -7.9061 C.ar    1  LIG11       0.0483
      2 C          -2.0568    7.0910   -8.4779 C.ar    1  LIG11       0.0543
      3 C          -3.0022    6.8892   -9.4566 C.ar    1  LIG11       0.0483
      4 N          -3.4133    5.6661   -9.8591 N.ar    1  LIG11      -0.2022
      5 N          -1.9268    4.7054   -8.2571 N.ar    1  LIG11      -0.2022
      6 C          -4.0454    0.3736   -5.9038 C.ar    1  LIG11      -0.0504
      7 C          -4.8564    1.4720   -6.1872 C.ar    1  LIG11      -0.0583
      8 C          -5.7830    1.4179   -7.2361 C.ar    1  LIG11      -0.0535
      9 C          -5.8937    0.2893   -8.0687 C.ar    1  LIG11      -0.0094
     10 C          -5.1337   -0.8377   -7.7038 C.ar    1  LIG11      -0.0535
     11 C          -4.2333   -0.8021   -6.6313 C.ar    1  LIG11      -0.0583
     12 C          -7.5845   -3.4272   -4.9942 C.ar    1  LIG11      -0.0561
     13 C          -7.9745   -3.2691   -6.3265 C.ar    1  LIG11      -0.0348
     14 C          -8.6055   -2.0898   -6.7199 C.ar    1  LIG11       0.1086
     15 C          -8.8778   -1.0913   -5.7905 C.ar    1  LIG11      -0.0348
     16 C          -8.4825   -1.2603   -4.4616 C.ar    1  LIG11      -0.0561
     17 C          -7.3648   -2.6052   -2.5651 C.3     1  LIG11       0.0132
     18 C          -7.8067   -2.4186   -4.0335 C.ar    1  LIG11      -0.0394
     19 C          -8.4345   -3.4541   -1.8488 C.3     1  LIG11      -0.0537
     20 C          -7.1389   -1.2619   -1.8007 C.3     1  LIG11       0.0533
     21 C          -6.0104   -3.3565   -2.4904 C.3     1  LIG11      -0.0537
     22 O          -8.3376   -0.5651   -1.4681 O.3     1  LIG11      -0.3942
     23 S          -9.1163   -1.8932   -8.4060 S.O2    1  LIG11       0.0735
     24 O          -9.8108   -3.1109   -8.7688 O.2     1  LIG11      -0.1499
     25 O          -9.7361   -0.5910   -8.5445 O.2     1  LIG11      -0.1499
     26 N          -7.6323   -1.9402   -9.2287 N.pl3   1  LIG11      -0.1988
     27 C          -6.6295    0.3272   -9.3609 C.ar    1  LIG11       0.0847
     28 C          -6.5466    1.4048  -10.2475 C.ar    1  LIG11       0.2276
     29 N          -7.0515    1.4232  -11.4992 N.ar    1  LIG11      -0.2008
     30 C          -7.6661    0.3087  -11.8976 C.ar    1  LIG11       0.1219
     31 N          -7.8223   -0.7968  -11.1692 N.ar    1  LIG11      -0.2186
     32 C          -7.3200   -0.7412   -9.9226 C.ar    1  LIG11       0.1524
     33 C          -2.9645    0.4551   -4.8686 C.3     1  LIG11      -0.0397
     34 O          -5.9549    2.5635   -9.7944 O.3     1  LIG11      -0.4724
     35 C          -5.3745    3.4360  -10.7649 C.3     1  LIG11       0.1252
     36 C          -3.8629    3.2044  -10.8237 C.3     1  LIG11       0.1267
     37 O          -3.2371    3.3406   -9.5445 O.3     1  LIG11      -0.4590
     38 C          -2.8483    4.6204   -9.2299 C.ar    1  LIG11       0.3180
     39 BR         -1.5035    8.8073   -7.9590 Br      1  LIG11      -0.0472
@<TRIPOS>BOND
     1     1     2   ar
     2     2     3   ar
     3     2    39    1
     4     3     4   ar
     5     4    38   ar
     6     5     1   ar
     7     6     7   ar
     8     6    33    1
     9     7     8   ar
    10     8     9   ar
    11     9    10   ar
    12    10    11   ar
    13    11     6   ar
    14    12    13   ar
    15    13    14   ar
    16    14    15   ar
    17    15    16   ar
    18    16    18   ar
    19    17    18    1
    20    17    21    1
    21    17    20    1
    22    17    19    1
    23    18    12   ar
    24    20    22    1
    25    23    26    1
    26    23    25    2
    27    23    24    2
    28    23    14    1
    29    26    32    1
    30    27    28   ar
    31    27     9    1
    32    28    29   ar
    33    29    30   ar
    34    30    31   ar
    35    31    32   ar
    36    32    27   ar
    37    34    35    1
    38    34    28    1
    39    35    36    1
    40    36    37    1
    41    37    38    1
    42    38     5   ar
@<TRIPOS>MOLECULE
../ET1/ET1_17-21_50CONFORMERS.pdb
 47 48 0 0 0
SMALL
GASTEIGER

@<TRIPOS>ATOM
      1  N         -4.3360    0.0210   -1.6350 N.3    17  LEU17      -0.1231
      2  CA        -5.5740   -0.4820   -2.2450 C.3    17  LEU17       0.1693
      3  CB        -6.0910   -1.6180   -1.3980 C.3    17  LEU17       0.0284
      4  CG        -7.1940   -2.5360   -1.9300 C.3    17  LEU17       0.0019
      5  CD1       -6.7940   -3.3700   -3.1490 C.3    17  LEU17       0.0001
      6  CD2       -7.6880   -3.5890   -0.9250 C.3    17  LEU17       0.0001
      7  C         -6.7280    0.5290   -2.3580 C.2    17  LEU17       0.2592
      8  O         -7.4990    0.5240   -3.3000 O.2    17  LEU17      -0.2718
      9  N         -6.9180    1.3590   -1.3630 N.am   18  ASP18      -0.1960
     10  CA        -7.9590    2.3730   -1.2220 C.3    18  ASP18       0.1840
     11  CB        -9.2050    1.7950   -0.5390 C.3    18  ASP18       0.1450
     12  CG       -10.3200    2.7850   -0.5550 C.2    18  ASP18       0.3671
     13  OD1      -11.0210    2.7300   -1.6150 O.co2  18  ASP18      -0.2456
     14  OD2      -10.4710    3.5410    0.4120 O.co2  18  ASP18      -0.2456
     15  C         -7.4480    3.6540   -0.5780 C.2    18  ASP18       0.2622
     16  O         -7.7580    4.7430   -1.0410 O.2    18  ASP18      -0.2715
     17  N         -6.6220    3.5120    0.4740 N.am   19  ILE19      -0.1963
     18  CA        -5.9360    4.6640    1.0770 C.3    19  ILE19       0.1727
     19  CB        -4.9810    4.1540    2.2170 C.3    19  ILE19       0.0290
     20  CG2       -4.0530    5.3090    2.7190 C.3    19  ILE19       0.0023
     21  CG1       -5.7910    3.4760    3.3290 C.3    19  ILE19       0.0022
     22  CD1       -4.8670    2.8100    4.3570 C.3    19  ILE19       0.0001
     23  C         -5.1600    5.4290    0.0000 C.2    19  ILE19       0.2616
     24  O         -5.3650    6.6380   -0.1130 O.2    19  ILE19      -0.2715
     25  N         -4.3550    4.7180   -0.7820 N.am   20  ILE20      -0.1963
     26  CA        -3.5620    5.1550   -1.8730 C.3    20  ILE20       0.1727
     27  CB        -2.0910    5.4810   -1.4650 C.3    20  ILE20       0.0290
     28  CG2       -1.9860    6.7460   -0.5500 C.3    20  ILE20       0.0023
     29  CG1       -1.4960    4.2170   -0.7850 C.3    20  ILE20       0.0022
     30  CD1        0.0110    4.2170   -0.4870 C.3    20  ILE20       0.0001
     31  C         -3.6680    4.2220   -3.0430 C.2    20  ILE20       0.2617
     32  O         -3.6650    2.9720   -2.8760 O.2    20  ILE20      -0.2715
     33  N         -3.5890    4.8530   -4.2030 N.am   21  TRP21      -0.1941
     34  CA        -3.5660    4.1980   -5.4940 C.3    21  TRP21       0.1982
     35  CB        -5.0110    4.3230   -5.9680 C.3    21  TRP21       0.0394
     36  CG        -5.3960    3.4640   -7.1630 C.3    21  TRP21       0.0475
     37  CD1       -5.6040    3.8300   -8.4930 C.3    21  TRP21       0.1166
     38  NE1       -5.9490    2.6430   -9.2160 N.pl3  21  TRP21      -0.2376
     39  CE2       -5.6830    1.5430   -8.4990 C.ar   21  TRP21       0.0614
     40  CZ2       -5.7540    0.1720   -8.7210 C.ar   21  TRP21       0.0158
     41  CH2       -5.4780   -0.7730   -7.7240 C.ar   21  TRP21       0.0013
     42  CZ3       -5.2550   -0.3200   -6.3820 C.ar   21  TRP21      -0.0002
     43  CE3       -5.1180    1.0670   -6.1140 C.ar   21  TRP21      -0.0030
     44  CD2       -5.3540    2.0190   -7.1840 C.ar   21  TRP21      -0.0059
     45  C         -2.6690    4.8410   -6.5150 C.2    21  TRP21       0.3842
     46  O         -1.9570    4.1290   -7.1910 O.co2  21  TRP21      -0.2437
     47  OXT       -2.6800    6.0900   -6.6540 O.co2  21  TRP21      -0.2437
@<TRIPOS>BOND
     1    40    41   ar
     2    40    39   ar
     3    41    42   ar
     4    39    38    1
     5    39    44   ar
     6    42    43   ar
     7    38    37    1
     8    43    44   ar
     9    44    36    1
    10    37    36    1
    11    36    35    1
    12    47    45   ar
    13     5     4    1
    14    35    34    1
    15    45    34    1
    16    45    46   ar
    17    34    33    1
    18     8     7    2
    19     4     6    1
    20     4     3    1
    21     2     3    1
    22     2     1    1
    23     2     7    1
    24     7     9   am
    25    33    31   am
    26    32    31    2
    27    31    26    1
    28     9    10    1
    29    10    11    1
    30    10    15    1
    31    26    27    1
    32    26    25    1
    33    11    12    1
    34    13    12   ar
    35    27    29    1
    36    27    28    1
    37    29    30    1
    38    16    15    2
    39    15    17   am
    40    12    14   ar
    41    25    23   am
    42    17    18    1
    43    23    24    2
    44    23    18    1
    45    18    19    1
    46    19    21    1
    47    19    20    1
    48    21    22    1
