@<TRIPOS>MOLECULE
../ET1/ET1_17-21_50CONFORMERS_NOBACKBONE.pdb
 26 23 0 0 0
SMALL
GASTEIGER

@<TRIPOS>ATOM
      1  CB        -5.5600   -1.8760   -2.4960 C.3    17  LEU17       0.0000
      2  CG        -6.8600   -2.5850   -2.8960 C.3    17  LEU17       0.0000
      3  CD1       -7.1340   -2.5660   -4.3750 C.3    17  LEU17       0.0000
      4  CD2       -6.7590   -4.0120   -2.4400 C.3    17  LEU17       0.0000
      5  CB        -9.1330   -0.1140   -0.3870 C.3    18  ASP18       0.1258
      6  CG       -10.5190    0.2590    0.1090 C.2    18  ASP18       0.3654
      7  OD1      -10.6870    0.1950    1.3500 O.co2  18  ASP18      -0.2456
      8  OD2      -11.3630    0.6190   -0.7170 O.co2  18  ASP18      -0.2456
      9  CB        -6.2400    2.6510    3.3830 C.3    19  ILE19       0.0000
     10  CG2       -4.8340    2.1790    3.0100 C.3    19  ILE19       0.0000
     11  CG1       -6.1590    3.8270    4.4510 C.3    19  ILE19       0.0000
     12  CD1       -6.2900    3.2210    5.8430 C.3    19  ILE19       0.0000
     13  CB        -3.7050    5.8140    0.2540 C.3    20  ILE20       0.0000
     14  CG2       -4.0800    6.7630    1.4120 C.3    20  ILE20       0.0000
     15  CG1       -2.4080    5.0920    0.7870 C.3    20  ILE20       0.0000
     16  CD1       -1.5810    4.4340   -0.3390 C.3    20  ILE20       0.0000
     17  CB        -4.5040    4.7650   -4.9540 C.3    21  TRP21       0.0066
     18  CG        -4.1660    4.1700   -6.3060 C.3    21  TRP21       0.0452
     19  CD1       -3.6480    4.8090   -7.4240 C.3    21  TRP21       0.1165
     20  NE1       -3.6150    3.9660   -8.5310 N.pl3  21  TRP21      -0.2376
     21  CE2       -4.2200    2.7770   -8.1780 C.ar   21  TRP21       0.0614
     22  CZ2       -4.3080    1.5720   -8.8160 C.ar   21  TRP21       0.0158
     23  CH2       -5.0040    0.4940   -8.2370 C.ar   21  TRP21       0.0013
     24  CZ3       -5.4670    0.6240   -6.9110 C.ar   21  TRP21      -0.0002
     25  CE3       -5.3310    1.8220   -6.2160 C.ar   21  TRP21      -0.0030
     26  CD2       -4.6430    2.8870   -6.8160 C.ar   21  TRP21      -0.0059
@<TRIPOS>BOND
     1    22    23   ar
     2    22    21   ar
     3    23    24   ar
     4    21    20    1
     5    21    26   ar
     6    24    25   ar
     7    20    19    1
     8    25    26   ar
     9    26    18    1
    10    19    18    1
    11    18    17    1
    12     3     2    1
    13     2     4    1
    14     2     1    1
    15     5     6    1
    16     7     6   ar
    17    13    15    1
    18    13    14    1
    19    15    16    1
    20     6     8   ar
    21     9    11    1
    22     9    10    1
    23    11    12    1
@<TRIPOS>MOLECULE
9871593
 37 40 0 0 0
SMALL
GASTEIGER

@<TRIPOS>ATOM
      1 O          -1.9027    9.6056   -3.6500 O.3     1  LIG11      -0.4526
      2 O          -3.4674   11.2080   -4.5530 O.3     1  LIG11      -0.4526
      3 O          -4.9472    7.4029   -0.7405 O.3     1  LIG11      -0.4913
      4 O          -8.0723    8.4835   -4.3499 O.3     1  LIG11      -0.4913
      5 O          -7.0934    9.0319   -1.7119 O.3     1  LIG11      -0.4885
      6 O          -2.2006    3.3598   -6.2703 O.2     1  LIG11      -0.2870
      7 O          -1.4763    6.5433   -8.0328 O.co2   1  LIG11      -0.5446
      8 O          -3.1570    5.2462   -8.8916 O.co2   1  LIG11      -0.5446
      9 O          -6.3347   -0.8710   -8.1573 O.3     1  LIG11      -0.4951
     10 C          -4.9388    4.8513   -4.9493 C.3     1  LIG11       0.0021
     11 C          -3.9635    4.9695   -6.0867 C.2     1  LIG11       0.0135
     12 C          -5.4165    6.0328   -4.1418 C.ar    1  LIG11      -0.0358
     13 C          -3.3912    6.0454   -6.6707 C.2     1  LIG11       0.0117
     14 C          -3.4598    7.4224   -6.1686 C.ar    1  LIG11      -0.0121
     15 C          -3.3793    3.6344   -6.4900 C.2     1  LIG11       0.1901
     16 C          -6.4876    6.8207   -4.5687 C.ar    1  LIG11      -0.0126
     17 C          -4.8747    6.2748   -2.8759 C.ar    1  LIG11      -0.0126
     18 C          -2.5904    7.7956   -5.1297 C.ar    1  LIG11      -0.0084
     19 C          -2.6650    9.0836   -4.6495 C.ar    1  LIG11       0.1668
     20 C          -4.3587    8.3659   -6.7054 C.ar    1  LIG11      -0.0503
     21 C          -3.5566    9.9948   -5.1648 C.ar    1  LIG11       0.1663
     22 C          -5.4247    7.2397   -2.0190 C.ar    1  LIG11       0.1654
     23 C          -7.0329    7.8173   -3.7448 C.ar    1  LIG11       0.1654
     24 C          -4.2668    2.5331   -6.9170 C.ar    1  LIG11       0.0222
     25 C          -6.4906    8.0530   -2.4630 C.ar    1  LIG11       0.2035
     26 C          -4.4161    9.6686   -6.1931 C.ar    1  LIG11      -0.0156
     27 C          -2.5726    5.9175   -7.9866 C.2     1  LIG11       0.0726
     28 C          -2.3906   10.9590   -3.6268 C.3     1  LIG11       0.2332
     29 C          -4.2299    2.0992   -8.2407 C.ar    1  LIG11      -0.0475
     30 C          -4.9818    1.7959   -5.9658 C.ar    1  LIG11      -0.0475
     31 C          -4.9428    0.9532   -8.6132 C.ar    1  LIG11      -0.0193
     32 C          -5.7120    0.6669   -6.3459 C.ar    1  LIG11      -0.0193
     33 C          -5.6933    0.2374   -7.6727 C.ar    1  LIG11       0.1201
     34 C          -4.4603    6.2245   -0.1053 C.3     1  LIG11       0.0790
     35 C          -9.0758    9.0337   -3.5101 C.3     1  LIG11       0.0790
     36 C          -6.3287    9.6779   -0.7053 C.3     1  LIG11       0.0791
     37 C          -7.1932   -1.5551   -7.2525 C.3     1  LIG11       0.0788
@<TRIPOS>BOND
     1     1    19    1
     2     1    28    1
     3     2    28    1
     4     2    21    1
     5     3    22    1
     6     3    34    1
     7     4    23    1
     8     4    35    1
     9     5    25    1
    10     5    36    1
    11     6    15    2
    12     7    27   ar
    13     8    27   ar
    14     9    33    1
    15     9    37    1
    16    10    11    1
    17    10    12    1
    18    11    13    2
    19    11    15    1
    20    12    16   ar
    21    12    17   ar
    22    13    14    1
    23    13    27    1
    24    14    20   ar
    25    14    18   ar
    26    15    24    1
    27    16    23   ar
    28    17    22   ar
    29    18    19   ar
    30    19    21   ar
    31    20    26   ar
    32    21    26   ar
    33    22    25   ar
    34    23    25   ar
    35    24    29   ar
    36    24    30   ar
    37    29    31   ar
    38    30    32   ar
    39    31    33   ar
    40    32    33   ar
@<TRIPOS>MOLECULE
../ET1/ET1_17-21_50CONFORMERS.pdb
 47 48 0 0 0
SMALL
GASTEIGER

@<TRIPOS>ATOM
      1  N         -4.1620    0.1770   -2.2540 N.3    17  LEU17      -0.1231
      2  CA        -5.3890   -0.3930   -2.7840 C.3    17  LEU17       0.1693
      3  CB        -5.5600   -1.8760   -2.4960 C.3    17  LEU17       0.0284
      4  CG        -6.8600   -2.5850   -2.8960 C.3    17  LEU17       0.0019
      5  CD1       -7.1340   -2.5660   -4.3750 C.3    17  LEU17       0.0001
      6  CD2       -6.7590   -4.0120   -2.4400 C.3    17  LEU17       0.0001
      7  C         -6.6340    0.5790   -2.5340 C.2    17  LEU17       0.2592
      8  O         -7.2520    0.9240   -3.5380 O.2    17  LEU17      -0.2718
      9  N         -7.0610    0.7170   -1.3030 N.am   18  ASP18      -0.1960
     10  CA        -8.3850    1.1220   -0.9340 C.3    18  ASP18       0.1840
     11  CB        -9.1330   -0.1140   -0.3870 C.3    18  ASP18       0.1450
     12  CG       -10.5190    0.2590    0.1090 C.2    18  ASP18       0.3671
     13  OD1      -10.6870    0.1950    1.3500 O.co2  18  ASP18      -0.2456
     14  OD2      -11.3630    0.6190   -0.7170 O.co2  18  ASP18      -0.2456
     15  C         -8.1950    2.3170    0.0710 C.2    18  ASP18       0.2622
     16  O         -8.8070    3.3530   -0.1690 O.2    18  ASP18      -0.2715
     17  N         -7.4680    2.0920    1.1690 N.am   19  ILE19      -0.1963
     18  CA        -7.1440    3.1470    2.1900 C.3    19  ILE19       0.1727
     19  CB        -6.2400    2.6510    3.3830 C.3    19  ILE19       0.0290
     20  CG2       -4.8340    2.1790    3.0100 C.3    19  ILE19       0.0023
     21  CG1       -6.1590    3.8270    4.4510 C.3    19  ILE19       0.0022
     22  CD1       -6.2900    3.2210    5.8430 C.3    19  ILE19       0.0001
     23  C         -6.5590    4.2680    1.3570 C.2    19  ILE19       0.2616
     24  O         -7.1230    5.3880    1.3430 O.2    19  ILE19      -0.2715
     25  N         -5.4440    4.0380    0.5930 N.am   20  ILE20      -0.1963
     26  CA        -4.8730    4.9550   -0.3770 C.3    20  ILE20       0.1727
     27  CB        -3.7050    5.8140    0.2540 C.3    20  ILE20       0.0290
     28  CG2       -4.0800    6.7630    1.4120 C.3    20  ILE20       0.0023
     29  CG1       -2.4080    5.0920    0.7870 C.3    20  ILE20       0.0022
     30  CD1       -1.5810    4.4340   -0.3390 C.3    20  ILE20       0.0001
     31  C         -4.5500    4.2860   -1.6860 C.2    20  ILE20       0.2617
     32  O         -4.6770    3.1090   -1.8670 O.2    20  ILE20      -0.2715
     33  N         -4.0000    5.0300   -2.6580 N.am   21  TRP21      -0.1941
     34  CA        -3.4560    4.6010   -3.9210 C.3    21  TRP21       0.1982
     35  CB        -4.5040    4.7650   -4.9540 C.3    21  TRP21       0.0394
     36  CG        -4.1660    4.1700   -6.3060 C.3    21  TRP21       0.0475
     37  CD1       -3.6480    4.8090   -7.4240 C.3    21  TRP21       0.1166
     38  NE1       -3.6150    3.9660   -8.5310 N.pl3  21  TRP21      -0.2376
     39  CE2       -4.2200    2.7770   -8.1780 C.ar   21  TRP21       0.0614
     40  CZ2       -4.3080    1.5720   -8.8160 C.ar   21  TRP21       0.0158
     41  CH2       -5.0040    0.4940   -8.2370 C.ar   21  TRP21       0.0013
     42  CZ3       -5.4670    0.6240   -6.9110 C.ar   21  TRP21      -0.0002
     43  CE3       -5.3310    1.8220   -6.2160 C.ar   21  TRP21      -0.0030
     44  CD2       -4.6430    2.8870   -6.8160 C.ar   21  TRP21      -0.0059
     45  C         -2.1620    5.4310   -4.2590 C.2    21  TRP21       0.3842
     46  O         -2.1260    6.6300   -4.0970 O.co2  21  TRP21      -0.2437
     47  OXT       -1.2210    4.8480   -4.8090 O.co2  21  TRP21      -0.2437
@<TRIPOS>BOND
     1    40    41   ar
     2    40    39   ar
     3    41    42   ar
     4    39    38    1
     5    39    44   ar
     6    42    43   ar
     7    38    37    1
     8    43    44   ar
     9    44    36    1
    10    37    36    1
    11    36    35    1
    12    47    45   ar
    13     5     4    1
    14    35    34    1
    15    45    34    1
    16    45    46   ar
    17    34    33    1
    18     8     7    2
    19     4     6    1
    20     4     3    1
    21     2     3    1
    22     2     1    1
    23     2     7    1
    24     7     9   am
    25    33    31   am
    26    32    31    2
    27    31    26    1
    28     9    10    1
    29    10    11    1
    30    10    15    1
    31    26    27    1
    32    26    25    1
    33    11    12    1
    34    13    12   ar
    35    27    29    1
    36    27    28    1
    37    29    30    1
    38    16    15    2
    39    15    17   am
    40    12    14   ar
    41    25    23   am
    42    17    18    1
    43    23    24    2
    44    23    18    1
    45    18    19    1
    46    19    21    1
    47    19    20    1
    48    21    22    1
