@<TRIPOS>MOLECULE
../ET1/ET1_17-21_50CONFORMERS_NOBACKBONE.pdb
 26 23 0 0 0
SMALL
GASTEIGER

@<TRIPOS>ATOM
      1  CB        -5.4700   -1.7730   -3.1120 C.3    17  LEU17       0.0000
      2  CG        -6.7900   -2.5440   -3.4740 C.3    17  LEU17       0.0000
      3  CD1       -7.0450   -2.3540   -4.9550 C.3    17  LEU17       0.0000
      4  CD2       -6.7910   -4.0540   -3.2680 C.3    17  LEU17       0.0000
      5  CB        -9.0330   -0.0920   -0.3620 C.3    18  ASP18       0.1258
      6  CG       -10.2330    0.4120    0.4010 C.2    18  ASP18       0.3654
      7  OD1      -11.1160    1.0220   -0.2680 O.co2  18  ASP18      -0.2456
      8  OD2      -10.4510    0.1630    1.6130 O.co2  18  ASP18      -0.2456
      9  CB        -5.4710    2.2040    3.1630 C.3    19  ILE19       0.0000
     10  CG2       -5.1840    3.1650    4.3090 C.3    19  ILE19       0.0000
     11  CG1       -6.1520    0.8640    3.6900 C.3    19  ILE19       0.0000
     12  CD1       -5.5640    0.1860    4.9100 C.3    19  ILE19       0.0000
     13  CB        -2.8050    5.3000    0.0680 C.3    20  ILE20       0.0000
     14  CG2       -2.8110    6.1260    1.4110 C.3    20  ILE20       0.0000
     15  CG1       -1.8290    4.1090    0.1720 C.3    20  ILE20       0.0000
     16  CD1       -0.3670    4.5410    0.3990 C.3    20  ILE20       0.0000
     17  CB        -4.4580    6.4030   -4.9110 C.3    21  TRP21       0.0066
     18  CG        -4.3280    6.3820   -6.4230 C.3    21  TRP21       0.0452
     19  CD1       -4.4150    7.5280   -7.1320 C.3    21  TRP21       0.1165
     20  NE1       -4.1980    7.3100   -8.4730 N.pl3  21  TRP21      -0.2376
     21  CE2       -4.0690    5.9840   -8.7560 C.ar   21  TRP21       0.0614
     22  CZ2       -3.7460    5.2670   -9.9520 C.ar   21  TRP21       0.0158
     23  CH2       -3.6540    3.8750   -9.8130 C.ar   21  TRP21       0.0013
     24  CZ3       -4.0280    3.2260   -8.6640 C.ar   21  TRP21      -0.0002
     25  CE3       -4.2890    4.0000   -7.5300 C.ar   21  TRP21      -0.0030
     26  CD2       -4.2870    5.3570   -7.4880 C.ar   21  TRP21      -0.0059
@<TRIPOS>BOND
     1    22    23   ar
     2    22    21   ar
     3    23    24   ar
     4    21    20    1
     5    21    26   ar
     6    24    25   ar
     7    20    19    1
     8    25    26   ar
     9    26    18    1
    10    19    18    1
    11    18    17    1
    12     3     2    1
    13     2     4    1
    14     2     1    1
    15     5     6    1
    16     7     6   ar
    17    13    15    1
    18    13    14    1
    19    15    16    1
    20     6     8   ar
    21     9    11    1
    22     9    10    1
    23    11    12    1
@<TRIPOS>MOLECULE
9910224
 30 33 0 0 0
SMALL
GASTEIGER

@<TRIPOS>ATOM
      1 S          -2.7565    2.8847   -5.0162 S.O2    1  LIG11       0.0756
      2 O          -2.2503    2.1284   -3.8857 O.2     1  LIG11      -0.1499
      3 O          -1.8496    3.2331   -6.0871 O.2     1  LIG11      -0.1499
      4 O          -2.6438    4.5693   -1.6836 O.3     1  LIG11      -0.4773
      5 O          -3.2631    6.0271  -12.0940 O.2     1  LIG11      -0.4229
      6 N          -3.3836    4.3287   -4.3969 N.pl3   1  LIG11      -0.1951
      7 N          -5.7081    1.5137   -7.4310 N.ar    1  LIG11      -0.2530
      8 N          -5.5545    3.8161   -3.7307 N.ar    1  LIG11      -0.2325
      9 N          -4.8225    3.9423   -0.9872 N.ar    1  LIG11      -0.2137
     10 N          -2.9535    7.6423  -10.5767 N.ar    1  LIG11      -0.1076
     11 N          -2.7417    8.1856  -11.8295 N.ar    1  LIG11      -0.1156
     12 C          -4.1318    2.0049   -5.6896 C.ar    1  LIG11       0.1344
     13 C          -4.6894    2.2841   -6.9337 C.ar    1  LIG11       0.0975
     14 C          -4.2943    3.3454   -7.8802 C.ar    1  LIG11       0.0023
     15 C          -4.6182    0.9060   -4.9575 C.ar    1  LIG11      -0.0315
     16 C          -4.2869    4.7059   -7.5438 C.ar    1  LIG11      -0.0518
     17 C          -3.9805    3.0072   -9.2094 C.ar    1  LIG11      -0.0518
     18 C          -4.3091    4.1421   -3.3326 C.ar    1  LIG11       0.2006
     19 C          -3.6014    5.3342   -9.8012 C.ar    1  LIG11       0.0385
     20 C          -3.9217    5.6831   -8.4823 C.ar    1  LIG11      -0.0488
     21 C          -3.6433    3.9823  -10.1573 C.ar    1  LIG11      -0.0488
     22 C          -5.6565    0.1353   -5.4629 C.ar    1  LIG11      -0.0417
     23 C          -6.1667    0.4784   -6.6959 C.ar    1  LIG11       0.0284
     24 C          -3.9416    4.2007   -1.9834 C.ar    1  LIG11       0.2574
     25 C          -3.2540    6.3709  -10.7635 C.ar    1  LIG11       0.2480
     26 C          -6.0784    3.6105   -1.3810 C.ar    1  LIG11       0.0602
     27 C          -6.4277    3.5607   -2.7289 C.ar    1  LIG11       0.0510
     28 C          -7.0904    3.3019   -0.3221 C.3     1  LIG11      -0.0208
     29 C          -2.3819    4.5838   -0.2832 C.3     1  LIG11       0.0805
     30 C          -2.9398    7.2111  -12.6835 C.ar    1  LIG11       0.2047
@<TRIPOS>BOND
     1     1     2    2
     2     1     3    2
     3     1     6    1
     4     1    12    1
     5     4    24    1
     6     4    29    1
     7     5    25   ar
     8     5    30   ar
     9     6    18    1
    10     7    13   ar
    11     7    23   ar
    12     8    18   ar
    13     8    27   ar
    14     9    24   ar
    15     9    26   ar
    16    10    11   ar
    17    10    25   ar
    18    11    30   ar
    19    12    13   ar
    20    12    15   ar
    21    13    14    1
    22    14    16   ar
    23    14    17   ar
    24    15    22   ar
    25    16    20   ar
    26    17    21   ar
    27    18    24   ar
    28    19    20   ar
    29    19    21   ar
    30    19    25    1
    31    22    23   ar
    32    26    27   ar
    33    26    28    1
@<TRIPOS>MOLECULE
../ET1/ET1_17-21_50CONFORMERS.pdb
 47 48 0 0 0
SMALL
GASTEIGER

@<TRIPOS>ATOM
      1  N         -4.2160    0.4160   -2.9520 N.3    17  LEU17      -0.1231
      2  CA        -5.4630   -0.2520   -3.4030 C.3    17  LEU17       0.1693
      3  CB        -5.4700   -1.7730   -3.1120 C.3    17  LEU17       0.0284
      4  CG        -6.7900   -2.5440   -3.4740 C.3    17  LEU17       0.0019
      5  CD1       -7.0450   -2.3540   -4.9550 C.3    17  LEU17       0.0001
      6  CD2       -6.7910   -4.0540   -3.2680 C.3    17  LEU17       0.0001
      7  C         -6.7900    0.3610   -2.8310 C.2    17  LEU17       0.2592
      8  O         -7.6240    0.6580   -3.6850 O.2    17  LEU17      -0.2718
      9  N         -6.9720    0.5400   -1.5390 N.am   18  ASP18      -0.1960
     10  CA        -8.1540    1.0840   -0.8410 C.3    18  ASP18       0.1840
     11  CB        -9.0330   -0.0920   -0.3620 C.3    18  ASP18       0.1450
     12  CG       -10.2330    0.4120    0.4010 C.2    18  ASP18       0.3671
     13  OD1      -11.1160    1.0220   -0.2680 O.co2  18  ASP18      -0.2456
     14  OD2      -10.4510    0.1630    1.6130 O.co2  18  ASP18      -0.2456
     15  C         -7.7900    2.1820    0.2340 C.2    18  ASP18       0.2622
     16  O         -8.3300    3.2620    0.2010 O.2    18  ASP18      -0.2715
     17  N         -6.8500    1.8540    1.1550 N.am   19  ILE19      -0.1963
     18  CA        -6.3420    2.8860    2.0970 C.3    19  ILE19       0.1727
     19  CB        -5.4710    2.2040    3.1630 C.3    19  ILE19       0.0290
     20  CG2       -5.1840    3.1650    4.3090 C.3    19  ILE19       0.0023
     21  CG1       -6.1520    0.8640    3.6900 C.3    19  ILE19       0.0022
     22  CD1       -5.5640    0.1860    4.9100 C.3    19  ILE19       0.0001
     23  C         -5.7590    4.0730    1.4210 C.2    19  ILE19       0.2616
     24  O         -6.0490    5.1730    1.8250 O.2    19  ILE19      -0.2715
     25  N         -4.8150    3.8950    0.4790 N.am   20  ILE20      -0.1963
     26  CA        -4.2330    4.9020   -0.4020 C.3    20  ILE20       0.1727
     27  CB        -2.8050    5.3000    0.0680 C.3    20  ILE20       0.0290
     28  CG2       -2.8110    6.1260    1.4110 C.3    20  ILE20       0.0023
     29  CG1       -1.8290    4.1090    0.1720 C.3    20  ILE20       0.0022
     30  CD1       -0.3670    4.5410    0.3990 C.3    20  ILE20       0.0001
     31  C         -4.1810    4.4800   -1.8450 C.2    20  ILE20       0.2617
     32  O         -4.4770    3.2490   -2.1480 O.2    20  ILE20      -0.2715
     33  N         -3.9440    5.5160   -2.6450 N.am   21  TRP21      -0.1941
     34  CA        -3.5940    5.3680   -4.0770 C.3    21  TRP21       0.1982
     35  CB        -4.4580    6.4030   -4.9110 C.3    21  TRP21       0.0394
     36  CG        -4.3280    6.3820   -6.4230 C.3    21  TRP21       0.0475
     37  CD1       -4.4150    7.5280   -7.1320 C.3    21  TRP21       0.1166
     38  NE1       -4.1980    7.3100   -8.4730 N.pl3  21  TRP21      -0.2376
     39  CE2       -4.0690    5.9840   -8.7560 C.ar   21  TRP21       0.0614
     40  CZ2       -3.7460    5.2670   -9.9520 C.ar   21  TRP21       0.0158
     41  CH2       -3.6540    3.8750   -9.8130 C.ar   21  TRP21       0.0013
     42  CZ3       -4.0280    3.2260   -8.6640 C.ar   21  TRP21      -0.0002
     43  CE3       -4.2890    4.0000   -7.5300 C.ar   21  TRP21      -0.0030
     44  CD2       -4.2870    5.3570   -7.4880 C.ar   21  TRP21      -0.0059
     45  C         -2.1160    5.4700   -4.2830 C.2    21  TRP21       0.3842
     46  O         -1.4560    6.4110   -3.8260 O.co2  21  TRP21      -0.2437
     47  OXT       -1.5070    4.6100   -5.0100 O.co2  21  TRP21      -0.2437
@<TRIPOS>BOND
     1    40    41   ar
     2    40    39   ar
     3    41    42   ar
     4    39    38    1
     5    39    44   ar
     6    42    43   ar
     7    38    37    1
     8    43    44   ar
     9    44    36    1
    10    37    36    1
    11    36    35    1
    12    47    45   ar
    13     5     4    1
    14    35    34    1
    15    45    34    1
    16    45    46   ar
    17    34    33    1
    18     8     7    2
    19     4     6    1
    20     4     3    1
    21     2     3    1
    22     2     1    1
    23     2     7    1
    24     7     9   am
    25    33    31   am
    26    32    31    2
    27    31    26    1
    28     9    10    1
    29    10    11    1
    30    10    15    1
    31    26    27    1
    32    26    25    1
    33    11    12    1
    34    13    12   ar
    35    27    29    1
    36    27    28    1
    37    29    30    1
    38    16    15    2
    39    15    17   am
    40    12    14   ar
    41    25    23   am
    42    17    18    1
    43    23    24    2
    44    23    18    1
    45    18    19    1
    46    19    21    1
    47    19    20    1
    48    21    22    1
