@<TRIPOS>MOLECULE
../ET1/ET1_17-21_50CONFORMERS_NOBACKBONE.pdb
 26 23 0 0 0
SMALL
GASTEIGER

@<TRIPOS>ATOM
      1  CB        -6.0760   -1.7180   -1.5760 C.3    17  LEU17       0.0000
      2  CG        -7.3110   -2.5820   -1.9470 C.3    17  LEU17       0.0000
      3  CD1       -6.9390   -3.2580   -3.2630 C.3    17  LEU17       0.0000
      4  CD2       -7.7350   -3.6450   -0.9830 C.3    17  LEU17       0.0000
      5  CB        -9.4600    0.6200    0.3120 C.3    18  ASP18       0.1258
      6  CG       -10.8310    1.1150    0.8640 C.2    18  ASP18       0.3654
      7  OD1      -11.8750    0.6760    0.3220 O.co2  18  ASP18      -0.2456
      8  OD2      -10.9420    1.8120    1.8850 O.co2  18  ASP18      -0.2456
      9  CB        -5.8310    3.1830    3.2140 C.3    19  ILE19       0.0000
     10  CG2       -5.2210    4.3700    4.0780 C.3    19  ILE19       0.0000
     11  CG1       -6.5890    2.1450    4.0960 C.3    19  ILE19       0.0000
     12  CD1       -7.7320    2.6430    4.9740 C.3    19  ILE19       0.0000
     13  CB        -3.2350    5.6430   -0.5900 C.3    20  ILE20       0.0000
     14  CG2       -3.1020    6.4660    0.6790 C.3    20  ILE20       0.0000
     15  CG1       -2.3060    4.4540   -0.7430 C.3    20  ILE20       0.0000
     16  CD1       -0.8980    4.8160   -0.4210 C.3    20  ILE20       0.0000
     17  CB        -6.6430    4.4220   -4.8850 C.3    21  TRP21       0.0066
     18  CG        -6.7540    3.5400   -6.0910 C.3    21  TRP21       0.0452
     19  CD1       -6.3480    2.2620   -6.1710 C.3    21  TRP21       0.1165
     20  NE1       -6.6350    1.6980   -7.4270 N.pl3  21  TRP21      -0.2376
     21  CE2       -7.4160    2.5970   -8.1310 C.ar   21  TRP21       0.0614
     22  CZ2       -7.9590    2.5090   -9.4120 C.ar   21  TRP21       0.0158
     23  CH2       -8.6650    3.6450   -9.9300 C.ar   21  TRP21       0.0013
     24  CZ3       -8.6550    4.8890   -9.1660 C.ar   21  TRP21      -0.0002
     25  CE3       -8.0720    4.9490   -7.9420 C.ar   21  TRP21      -0.0030
     26  CD2       -7.4040    3.8200   -7.3920 C.ar   21  TRP21      -0.0059
@<TRIPOS>BOND
     1    22    23   ar
     2    22    21   ar
     3    23    24   ar
     4    21    20    1
     5    21    26   ar
     6    24    25   ar
     7    20    19    1
     8    25    26   ar
     9    26    18    1
    10    19    18    1
    11    18    17    1
    12     3     2    1
    13     2     4    1
    14     2     1    1
    15     5     6    1
    16     7     6   ar
    17    13    15    1
    18    13    14    1
    19    15    16    1
    20     6     8   ar
    21     9    11    1
    22     9    10    1
    23    11    12    1
@<TRIPOS>MOLECULE
3047752
 39 43 0 0 0
SMALL
GASTEIGER

@<TRIPOS>ATOM
      1 O          -6.2105    6.1039   -5.8608 O.co2   1  LIG11      -0.5495
      2 O          -7.0402    5.2331   -3.9331 O.co2   1  LIG11      -0.5495
      3 O          -7.4338    1.7227  -10.7218 O.3     1  LIG11      -0.4526
      4 O          -8.6905    3.6573  -11.4334 O.3     1  LIG11      -0.4526
      5 O           0.1480    2.2276   -5.4612 O.3     1  LIG11      -0.4951
      6 O          -2.2300    1.9766    0.1023 O.co2   1  LIG11      -0.5495
      7 O          -0.3567    3.0674   -0.6044 O.co2   1  LIG11      -0.5495
      8 N          -5.9286    0.3879   -4.0873 N.ar    1  LIG11      -0.2556
      9 C          -6.1189    3.7711   -5.5651 C.3     1  LIG11       0.0217
     10 C          -5.4676    2.8594   -4.4893 C.3     1  LIG11       0.0357
     11 C          -7.5006    3.1696   -5.9271 C.3     1  LIG11       0.0199
     12 C          -7.3944    1.7572   -5.4217 C.ar    1  LIG11      -0.0174
     13 C          -6.2490    1.5630   -4.6672 C.ar    1  LIG11       0.0534
     14 C          -3.9510    2.6938   -4.6554 C.ar    1  LIG11      -0.0344
     15 C          -7.8164    3.2995   -7.4155 C.ar    1  LIG11      -0.0356
     16 C          -6.4627    5.1647   -5.0544 C.2     1  LIG11       0.0466
     17 C          -8.2968    0.7155   -5.5665 C.ar    1  LIG11      -0.0546
     18 C          -3.0241    2.9753   -3.6145 C.ar    1  LIG11      -0.0395
     19 C          -3.4513    2.2309   -5.8927 C.ar    1  LIG11      -0.0542
     20 C          -6.7975   -0.6354   -4.2570 C.ar    1  LIG11       0.0416
     21 C          -7.3940    2.3527   -8.3665 C.ar    1  LIG11      -0.0124
     22 C          -7.9905   -0.5067   -4.9750 C.ar    1  LIG11      -0.0401
     23 C          -8.5302    4.4414   -7.8551 C.ar    1  LIG11      -0.0543
     24 C          -3.4938    3.4054   -2.2240 C.3     1  LIG11      -0.0196
     25 C          -1.6465    2.8107   -3.8765 C.ar    1  LIG11      -0.0165
     26 C          -6.4385   -1.9390   -3.5944 C.3     1  LIG11      -0.0104
     27 C          -2.4592    3.9574   -1.2246 C.3     1  LIG11      -0.0003
     28 C          -7.7394    2.5528   -9.6869 C.ar    1  LIG11       0.1665
     29 C          -2.0829    2.0850   -6.1214 C.ar    1  LIG11      -0.0197
     30 C          -8.8586    4.6230   -9.2022 C.ar    1  LIG11      -0.0159
     31 C          -1.1706    2.3880   -5.1196 C.ar    1  LIG11       0.1204
     32 C          -8.4558    3.6545  -10.0927 C.ar    1  LIG11       0.1662
     33 C          -7.0508   -2.1002   -2.1997 C.3     1  LIG11      -0.0479
     34 C          -3.1640    4.7050   -0.0878 C.3     1  LIG11      -0.0570
     35 C          -6.5761   -1.0894   -1.1495 C.3     1  LIG11      -0.0556
     36 C          -1.6107    2.8873   -0.5178 C.2     1  LIG11       0.0449
     37 C          -8.0165    2.4447  -11.8228 C.3     1  LIG11       0.2332
     38 C          -5.0767   -1.1285   -0.8962 C.3     1  LIG11      -0.0653
     39 C           1.0948    2.6681   -4.4915 C.3     1  LIG11       0.0788
@<TRIPOS>BOND
     1     1    16   ar
     2     2    16   ar
     3     3    28    1
     4     3    37    1
     5     4    32    1
     6     4    37    1
     7     5    31    1
     8     5    39    1
     9     6    36   ar
    10     7    36   ar
    11     8    13   ar
    12     8    20   ar
    13     9    10    1
    14     9    11    1
    15     9    16    1
    16    10    13    1
    17    10    14    1
    18    11    12    1
    19    11    15    1
    20    12    13   ar
    21    12    17   ar
    22    14    18   ar
    23    14    19   ar
    24    15    21   ar
    25    15    23   ar
    26    17    22   ar
    27    18    24    1
    28    18    25   ar
    29    19    29   ar
    30    20    22   ar
    31    20    26    1
    32    21    28   ar
    33    23    30   ar
    34    24    27    1
    35    25    31   ar
    36    26    33    1
    37    27    34    1
    38    27    36    1
    39    28    32   ar
    40    29    31   ar
    41    30    32   ar
    42    33    35    1
    43    35    38    1
@<TRIPOS>MOLECULE
../ET1/ET1_17-21_50CONFORMERS.pdb
 47 48 0 0 0
SMALL
GASTEIGER

@<TRIPOS>ATOM
      1  N         -4.8070    0.3350   -1.8510 N.3    17  LEU17      -0.1231
      2  CA        -5.9720   -0.3250   -2.3930 C.3    17  LEU17       0.1693
      3  CB        -6.0760   -1.7180   -1.5760 C.3    17  LEU17       0.0284
      4  CG        -7.3110   -2.5820   -1.9470 C.3    17  LEU17       0.0019
      5  CD1       -6.9390   -3.2580   -3.2630 C.3    17  LEU17       0.0001
      6  CD2       -7.7350   -3.6450   -0.9830 C.3    17  LEU17       0.0001
      7  C         -7.1850    0.6100   -2.2360 C.2    17  LEU17       0.2592
      8  O         -7.8620    0.7970   -3.2410 O.2    17  LEU17      -0.2718
      9  N         -7.5030    1.0240   -0.9560 N.am   18  ASP18      -0.1960
     10  CA        -8.6550    1.7030   -0.4650 C.3    18  ASP18       0.1840
     11  CB        -9.4600    0.6200    0.3120 C.3    18  ASP18       0.1450
     12  CG       -10.8310    1.1150    0.8640 C.2    18  ASP18       0.3671
     13  OD1      -11.8750    0.6760    0.3220 O.co2  18  ASP18      -0.2456
     14  OD2      -10.9420    1.8120    1.8850 O.co2  18  ASP18      -0.2456
     15  C         -8.2440    2.9730    0.3820 C.2    18  ASP18       0.2622
     16  O         -8.5260    4.1000   -0.0090 O.2    18  ASP18      -0.2715
     17  N         -7.4690    2.7490    1.4010 N.am   19  ILE19      -0.1963
     18  CA        -6.7810    3.7650    2.1880 C.3    19  ILE19       0.1727
     19  CB        -5.8310    3.1830    3.2140 C.3    19  ILE19       0.0290
     20  CG2       -5.2210    4.3700    4.0780 C.3    19  ILE19       0.0023
     21  CG1       -6.5890    2.1450    4.0960 C.3    19  ILE19       0.0022
     22  CD1       -7.7320    2.6430    4.9740 C.3    19  ILE19       0.0001
     23  C         -6.1710    4.8710    1.3220 C.2    19  ILE19       0.2616
     24  O         -6.6090    6.0060    1.3240 O.2    19  ILE19      -0.2715
     25  N         -5.0650    4.4950    0.5440 N.am   20  ILE20      -0.1963
     26  CA        -4.7620    5.2980   -0.6580 C.3    20  ILE20       0.1727
     27  CB        -3.2350    5.6430   -0.5900 C.3    20  ILE20       0.0290
     28  CG2       -3.1020    6.4660    0.6790 C.3    20  ILE20       0.0023
     29  CG1       -2.3060    4.4540   -0.7430 C.3    20  ILE20       0.0022
     30  CD1       -0.8980    4.8160   -0.4210 C.3    20  ILE20       0.0001
     31  C         -5.0510    4.4690   -1.9320 C.2    20  ILE20       0.2617
     32  O         -5.2790    3.2730   -1.9100 O.2    20  ILE20      -0.2715
     33  N         -5.0650    5.1730   -3.0850 N.am   21  TRP21      -0.1941
     34  CA        -5.1520    4.7060   -4.4930 C.3    21  TRP21       0.1982
     35  CB        -6.6430    4.4220   -4.8850 C.3    21  TRP21       0.0394
     36  CG        -6.7540    3.5400   -6.0910 C.3    21  TRP21       0.0475
     37  CD1       -6.3480    2.2620   -6.1710 C.3    21  TRP21       0.1166
     38  NE1       -6.6350    1.6980   -7.4270 N.pl3  21  TRP21      -0.2376
     39  CE2       -7.4160    2.5970   -8.1310 C.ar   21  TRP21       0.0614
     40  CZ2       -7.9590    2.5090   -9.4120 C.ar   21  TRP21       0.0158
     41  CH2       -8.6650    3.6450   -9.9300 C.ar   21  TRP21       0.0013
     42  CZ3       -8.6550    4.8890   -9.1660 C.ar   21  TRP21      -0.0002
     43  CE3       -8.0720    4.9490   -7.9420 C.ar   21  TRP21      -0.0030
     44  CD2       -7.4040    3.8200   -7.3920 C.ar   21  TRP21      -0.0059
     45  C         -4.4520    5.7090   -5.4240 C.2    21  TRP21       0.3842
     46  O         -4.9300    6.8650   -5.4290 O.co2  21  TRP21      -0.2437
     47  OXT       -3.4930    5.4370   -6.1890 O.co2  21  TRP21      -0.2437
@<TRIPOS>BOND
     1    40    41   ar
     2    40    39   ar
     3    41    42   ar
     4    39    38    1
     5    39    44   ar
     6    42    43   ar
     7    38    37    1
     8    43    44   ar
     9    44    36    1
    10    37    36    1
    11    36    35    1
    12    47    45   ar
    13     5     4    1
    14    35    34    1
    15    45    34    1
    16    45    46   ar
    17    34    33    1
    18     8     7    2
    19     4     6    1
    20     4     3    1
    21     2     3    1
    22     2     1    1
    23     2     7    1
    24     7     9   am
    25    33    31   am
    26    32    31    2
    27    31    26    1
    28     9    10    1
    29    10    11    1
    30    10    15    1
    31    26    27    1
    32    26    25    1
    33    11    12    1
    34    13    12   ar
    35    27    29    1
    36    27    28    1
    37    29    30    1
    38    16    15    2
    39    15    17   am
    40    12    14   ar
    41    25    23   am
    42    17    18    1
    43    23    24    2
    44    23    18    1
    45    18    19    1
    46    19    21    1
    47    19    20    1
    48    21    22    1
