@<TRIPOS>MOLECULE
../ET1/ET1_17-21_50CONFORMERS_NOBACKBONE.pdb
 26 23 0 0 0
SMALL
GASTEIGER

@<TRIPOS>ATOM
      1  CB        -5.5630   -1.7920   -0.2730 C.3    17  LEU17       0.0000
      2  CG        -6.8350   -2.7460   -0.0070 C.3    17  LEU17       0.0000
      3  CD1       -7.2560   -3.4860   -1.2910 C.3    17  LEU17       0.0000
      4  CD2       -6.3160   -3.7970    1.0040 C.3    17  LEU17       0.0000
      5  CB        -8.9840    1.2240    1.3410 C.3    18  ASP18       0.1258
      6  CG       -10.1930    2.0630    1.6540 C.2    18  ASP18       0.3654
      7  OD1      -10.1500    3.2400    2.0200 O.co2  18  ASP18      -0.2456
      8  OD2      -11.3060    1.5130    1.6110 O.co2  18  ASP18      -0.2456
      9  CB        -5.3570    4.4930    3.2940 C.3    19  ILE19       0.0000
     10  CG2       -4.4780    5.6870    3.7490 C.3    19  ILE19       0.0000
     11  CG1       -6.3190    4.1150    4.4900 C.3    19  ILE19       0.0000
     12  CD1       -7.8090    4.6270    4.5050 C.3    19  ILE19       0.0000
     13  CB        -2.4600    4.7370   -1.1830 C.3    20  ILE20       0.0000
     14  CG2       -1.7960    4.8610   -2.5930 C.3    20  ILE20       0.0000
     15  CG1       -1.8210    5.6110   -0.1150 C.3    20  ILE20       0.0000
     16  CD1       -0.4350    5.1380    0.2510 C.3    20  ILE20       0.0000
     17  CB        -7.3890    4.1340   -4.2790 C.3    21  TRP21       0.0066
     18  CG        -7.9650    3.2290   -5.3810 C.3    21  TRP21       0.0452
     19  CD1       -8.6520    3.7260   -6.4880 C.3    21  TRP21       0.1165
     20  NE1       -8.9820    2.6610   -7.3480 N.pl3  21  TRP21      -0.2376
     21  CE2       -8.3360    1.4850   -6.9200 C.ar   21  TRP21       0.0614
     22  CZ2       -8.3690    0.1720   -7.3900 C.ar   21  TRP21       0.0158
     23  CH2       -7.7830   -0.8370   -6.5720 C.ar   21  TRP21       0.0013
     24  CZ3       -7.1480   -0.5410   -5.3610 C.ar   21  TRP21      -0.0002
     25  CE3       -7.0900    0.8060   -4.9390 C.ar   21  TRP21      -0.0030
     26  CD2       -7.7610    1.8160   -5.6430 C.ar   21  TRP21      -0.0059
@<TRIPOS>BOND
     1    22    23   ar
     2    22    21   ar
     3    23    24   ar
     4    21    20    1
     5    21    26   ar
     6    24    25   ar
     7    20    19    1
     8    25    26   ar
     9    26    18    1
    10    19    18    1
    11    18    17    1
    12     3     2    1
    13     2     4    1
    14     2     1    1
    15     5     6    1
    16     7     6   ar
    17    13    15    1
    18    13    14    1
    19    15    16    1
    20     6     8   ar
    21     9    11    1
    22     9    10    1
    23    11    12    1
@<TRIPOS>MOLECULE
178103
 37 41 0 0 0
SMALL
GASTEIGER

@<TRIPOS>ATOM
      1 O         -10.0180    4.0111   -3.5129 O.co2   1  LIG11      -0.5495
      2 O          -8.9263    5.0166   -5.2374 O.co2   1  LIG11      -0.5495
      3 O          -1.8530    3.7215   -3.4668 O.3     1  LIG11      -0.4920
      4 O          -6.3387    1.5970   -1.8404 O.3     1  LIG11      -0.4893
      5 O          -9.1743    0.0148   -8.8722 O.3     1  LIG11      -0.4526
      6 O          -8.6983   -2.0288   -7.6791 O.3     1  LIG11      -0.4526
      7 O          -7.2138    3.4600    2.4706 O.3     1  LIG11      -0.4950
      8 O          -4.3656   -0.2681   -2.6600 O.3     1  LIG11      -0.3917
      9 C          -7.8644    3.2373   -4.0724 C.3     1  LIG11       0.0203
     10 C          -6.8871    4.0599   -3.1994 C.3     1  LIG11       0.0218
     11 C          -7.1127    2.8756   -5.3752 C.3     1  LIG11       0.0184
     12 C          -5.5338    3.6646   -3.7535 C.ar    1  LIG11      -0.0320
     13 C          -5.6607    2.9669   -4.9546 C.ar    1  LIG11      -0.0353
     14 C          -7.0281    3.8455   -1.6923 C.ar    1  LIG11       0.0025
     15 C          -7.5216    1.5274   -5.9490 C.ar    1  LIG11      -0.0356
     16 C          -9.0474    4.1699   -4.3075 C.2     1  LIG11       0.0466
     17 C          -4.2831    3.9585   -3.2199 C.ar    1  LIG11      -0.0159
     18 C          -4.5323    2.5257   -5.6311 C.ar    1  LIG11      -0.0542
     19 C          -6.7228    2.6340   -1.0388 C.ar    1  LIG11       0.1278
     20 C          -3.1412    3.5195   -3.8901 C.ar    1  LIG11       0.1208
     21 C          -8.1896    1.4762   -7.1853 C.ar    1  LIG11      -0.0124
     22 C          -3.2729    2.7873   -5.0805 C.ar    1  LIG11      -0.0196
     23 C          -7.2521    0.3182   -5.2648 C.ar    1  LIG11      -0.0543
     24 C          -7.4678    4.9349   -0.9191 C.ar    1  LIG11      -0.0510
     25 C          -8.5415    0.2415   -7.6890 C.ar    1  LIG11       0.1665
     26 C          -7.6259   -0.9195   -5.7943 C.ar    1  LIG11      -0.0159
     27 C          -6.7786    2.5730    0.3589 C.ar    1  LIG11       0.0221
     28 C          -7.5573    4.8494    0.4720 C.ar    1  LIG11      -0.0194
     29 C          -8.2675   -0.9241   -7.0105 C.ar    1  LIG11       0.1662
     30 C          -7.2005    3.6704    1.1169 C.ar    1  LIG11       0.1236
     31 C          -1.6294    4.8418   -2.6072 C.3     1  LIG11       0.0893
     32 C          -9.2915   -1.4202   -8.8432 C.3     1  LIG11       0.2332
     33 C          -6.3321    0.2593   -1.3438 C.3     1  LIG11       0.1126
     34 C          -1.5990    4.4034   -1.1450 C.3     1  LIG11      -0.0215
     35 C          -4.8877   -0.2277   -1.3324 C.3     1  LIG11       0.0783
     36 C          -7.7425    4.5098    3.2705 C.3     1  LIG11       0.0788
     37 C          -1.4572    5.5924   -0.2107 C.3     1  LIG11      -0.0622
@<TRIPOS>BOND
     1     1    16   ar
     2     2    16   ar
     3     3    20    1
     4     3    31    1
     5     4    19    1
     6     4    33    1
     7     5    25    1
     8     5    32    1
     9     6    29    1
    10     6    32    1
    11     7    30    1
    12     7    36    1
    13     8    35    1
    14     9    10    1
    15     9    11    1
    16     9    16    1
    17    10    12    1
    18    10    14    1
    19    11    13    1
    20    11    15    1
    21    12    13   ar
    22    12    17   ar
    23    13    18   ar
    24    14    19   ar
    25    14    24   ar
    26    15    21   ar
    27    15    23   ar
    28    17    20   ar
    29    18    22   ar
    30    19    27   ar
    31    20    22   ar
    32    21    25   ar
    33    23    26   ar
    34    24    28   ar
    35    25    29   ar
    36    26    29   ar
    37    27    30   ar
    38    28    30   ar
    39    31    34    1
    40    33    35    1
    41    34    37    1
@<TRIPOS>MOLECULE
../ET1/ET1_17-21_50CONFORMERS.pdb
 47 48 0 0 0
SMALL
GASTEIGER

@<TRIPOS>ATOM
      1  N         -4.6220    0.0550   -1.4400 N.3    17  LEU17      -0.1231
      2  CA        -5.7840   -0.7840   -1.4410 C.3    17  LEU17       0.1693
      3  CB        -5.5630   -1.7920   -0.2730 C.3    17  LEU17       0.0284
      4  CG        -6.8350   -2.7460   -0.0070 C.3    17  LEU17       0.0019
      5  CD1       -7.2560   -3.4860   -1.2910 C.3    17  LEU17       0.0001
      6  CD2       -6.3160   -3.7970    1.0040 C.3    17  LEU17       0.0001
      7  C         -7.0600    0.0240   -1.2480 C.2    17  LEU17       0.2592
      8  O         -7.9960   -0.2250   -2.0040 O.2    17  LEU17      -0.2718
      9  N         -7.1190    0.9520   -0.2900 N.am   18  ASP18      -0.1960
     10  CA        -8.1990    1.8400    0.1110 C.3    18  ASP18       0.1840
     11  CB        -8.9840    1.2240    1.3410 C.3    18  ASP18       0.1450
     12  CG       -10.1930    2.0630    1.6540 C.2    18  ASP18       0.3671
     13  OD1      -10.1500    3.2400    2.0200 O.co2  18  ASP18      -0.2456
     14  OD2      -11.3060    1.5130    1.6110 O.co2  18  ASP18      -0.2456
     15  C         -7.7000    3.1970    0.4870 C.2    18  ASP18       0.2622
     16  O         -8.0360    4.2400   -0.1950 O.2    18  ASP18      -0.2715
     17  N         -6.7900    3.3090    1.5090 N.am   19  ILE19      -0.1963
     18  CA        -6.2130    4.6300    1.9640 C.3    19  ILE19       0.1727
     19  CB        -5.3570    4.4930    3.2940 C.3    19  ILE19       0.0290
     20  CG2       -4.4780    5.6870    3.7490 C.3    19  ILE19       0.0023
     21  CG1       -6.3190    4.1150    4.4900 C.3    19  ILE19       0.0022
     22  CD1       -7.8090    4.6270    4.5050 C.3    19  ILE19       0.0001
     23  C         -5.3500    5.2750    0.8610 C.2    19  ILE19       0.2616
     24  O         -5.2360    6.5270    0.8080 O.2    19  ILE19      -0.2715
     25  N         -4.6430    4.4860    0.0450 N.am   20  ILE20      -0.1963
     26  CA        -4.0440    4.9650   -1.1840 C.3    20  ILE20       0.1727
     27  CB        -2.4600    4.7370   -1.1830 C.3    20  ILE20       0.0290
     28  CG2       -1.7960    4.8610   -2.5930 C.3    20  ILE20       0.0023
     29  CG1       -1.8210    5.6110   -0.1150 C.3    20  ILE20       0.0022
     30  CD1       -0.4350    5.1380    0.2510 C.3    20  ILE20       0.0001
     31  C         -4.7000    4.1960   -2.3510 C.2    20  ILE20       0.2617
     32  O         -4.7860    2.9690   -2.3310 O.2    20  ILE20      -0.2715
     33  N         -5.2380    4.9560   -3.3030 N.am   21  TRP21      -0.1941
     34  CA        -5.9570    4.6050   -4.5700 C.3    21  TRP21       0.1982
     35  CB        -7.3890    4.1340   -4.2790 C.3    21  TRP21       0.0394
     36  CG        -7.9650    3.2290   -5.3810 C.3    21  TRP21       0.0475
     37  CD1       -8.6520    3.7260   -6.4880 C.3    21  TRP21       0.1166
     38  NE1       -8.9820    2.6610   -7.3480 N.pl3  21  TRP21      -0.2376
     39  CE2       -8.3360    1.4850   -6.9200 C.ar   21  TRP21       0.0614
     40  CZ2       -8.3690    0.1720   -7.3900 C.ar   21  TRP21       0.0158
     41  CH2       -7.7830   -0.8370   -6.5720 C.ar   21  TRP21       0.0013
     42  CZ3       -7.1480   -0.5410   -5.3610 C.ar   21  TRP21      -0.0002
     43  CE3       -7.0900    0.8060   -4.9390 C.ar   21  TRP21      -0.0030
     44  CD2       -7.7610    1.8160   -5.6430 C.ar   21  TRP21      -0.0059
     45  C         -5.9130    5.8090   -5.5310 C.2    21  TRP21       0.3842
     46  O         -5.9470    5.5180   -6.7550 O.co2  21  TRP21      -0.2437
     47  OXT       -5.7930    6.9700   -5.0700 O.co2  21  TRP21      -0.2437
@<TRIPOS>BOND
     1    40    41   ar
     2    40    39   ar
     3    41    42   ar
     4    39    38    1
     5    39    44   ar
     6    42    43   ar
     7    38    37    1
     8    43    44   ar
     9    44    36    1
    10    37    36    1
    11    36    35    1
    12    47    45   ar
    13     5     4    1
    14    35    34    1
    15    45    34    1
    16    45    46   ar
    17    34    33    1
    18     8     7    2
    19     4     6    1
    20     4     3    1
    21     2     3    1
    22     2     1    1
    23     2     7    1
    24     7     9   am
    25    33    31   am
    26    32    31    2
    27    31    26    1
    28     9    10    1
    29    10    11    1
    30    10    15    1
    31    26    27    1
    32    26    25    1
    33    11    12    1
    34    13    12   ar
    35    27    29    1
    36    27    28    1
    37    29    30    1
    38    16    15    2
    39    15    17   am
    40    12    14   ar
    41    25    23   am
    42    17    18    1
    43    23    24    2
    44    23    18    1
    45    18    19    1
    46    19    21    1
    47    19    20    1
    48    21    22    1
