@<TRIPOS>MOLECULE
../ET1/ET1_17-21_50CONFORMERS_NOBACKBONE.pdb
 26 23 0 0 0
SMALL
GASTEIGER

@<TRIPOS>ATOM
      1  CB        -6.3930   -2.1110   -1.2450 C.3    17  LEU17       0.0000
      2  CG        -7.8050   -2.6450   -1.5590 C.3    17  LEU17       0.0000
      3  CD1       -8.0140   -2.9180   -3.0380 C.3    17  LEU17       0.0000
      4  CD2       -7.9070   -3.9870   -0.9150 C.3    17  LEU17       0.0000
      5  CB        -9.3620    1.4500    0.8640 C.3    18  ASP18       0.1258
      6  CG       -10.6720    2.2570    1.0000 C.2    18  ASP18       0.3654
      7  OD1      -11.6310    1.9220    0.2700 O.co2  18  ASP18      -0.2456
      8  OD2      -10.5730    3.2610    1.7420 O.co2  18  ASP18      -0.2456
      9  CB        -5.0550    3.8790    3.3490 C.3    19  ILE19       0.0000
     10  CG2       -4.4720    5.1840    3.9940 C.3    19  ILE19       0.0000
     11  CG1       -5.7460    2.9110    4.3260 C.3    19  ILE19       0.0000
     12  CD1       -4.7660    1.9810    5.1360 C.3    19  ILE19       0.0000
     13  CB        -2.5890    4.6890   -1.2580 C.3    20  ILE20       0.0000
     14  CG2       -2.0360    5.2650   -2.5660 C.3    20  ILE20       0.0000
     15  CG1       -1.8000    5.2360   -0.0430 C.3    20  ILE20       0.0000
     16  CD1       -0.3250    4.8950   -0.2060 C.3    20  ILE20       0.0000
     17  CB        -8.1130    4.2690   -3.5790 C.3    21  TRP21       0.0066
     18  CG        -8.8290    3.5660   -4.6970 C.3    21  TRP21       0.0452
     19  CD1       -9.9260    4.0510   -5.2650 C.3    21  TRP21       0.1165
     20  NE1      -10.2060    3.2220   -6.3210 N.pl3  21  TRP21      -0.2376
     21  CE2       -9.3890    2.1000   -6.4570 C.ar   21  TRP21       0.0614
     22  CZ2       -9.1720    1.1080   -7.4220 C.ar   21  TRP21       0.0158
     23  CH2       -8.0480    0.2790   -7.2920 C.ar   21  TRP21       0.0013
     24  CZ3       -7.2130    0.4420   -6.1700 C.ar   21  TRP21      -0.0002
     25  CE3       -7.3150    1.4940   -5.3170 C.ar   21  TRP21      -0.0030
     26  CD2       -8.4260    2.3550   -5.4210 C.ar   21  TRP21      -0.0059
@<TRIPOS>BOND
     1    22    23   ar
     2    22    21   ar
     3    23    24   ar
     4    21    20    1
     5    21    26   ar
     6    24    25   ar
     7    20    19    1
     8    25    26   ar
     9    26    18    1
    10    19    18    1
    11    18    17    1
    12     3     2    1
    13     2     4    1
    14     2     1    1
    15     5     6    1
    16     7     6   ar
    17    13    15    1
    18    13    14    1
    19    15    16    1
    20     6     8   ar
    21     9    11    1
    22     9    10    1
    23    11    12    1
@<TRIPOS>MOLECULE
9939443
 43 47 0 0 0
SMALL
GASTEIGER

@<TRIPOS>ATOM
      1 S          -2.8289    0.5211   -5.7047 S.O2    1  LIG11       0.0908
      2 O          -5.9910   -0.7984   -5.3451 O.3     1  LIG11      -0.4435
      3 O          -3.9689    0.7973   -6.5551 O.2     1  LIG11      -0.1484
      4 O          -1.5349    0.2508   -6.2992 O.2     1  LIG11      -0.1484
      5 O          -7.7511   -0.6212   -2.9617 O.3     1  LIG11      -0.4715
      6 O          -7.3976   -1.7335   -7.6135 O.3     1  LIG11      -0.4914
      7 O          -6.5364   -3.5085   -3.4246 O.3     1  LIG11      -0.3917
      8 N          -3.1869   -0.7995   -4.7124 N.pl3   1  LIG11      -0.1950
      9 N          -1.5303    1.8783   -3.8120 N.ar    1  LIG11      -0.2351
     10 N          -3.7072   -0.4768   -2.5414 N.ar    1  LIG11      -0.2073
     11 N          -5.9138   -0.3251   -1.6950 N.ar    1  LIG11      -0.1899
     12 N          -2.9648    0.6420    2.3152 N.ar    1  LIG11      -0.2552
     13 N          -0.0736   -1.2545    1.0839 N.ar    1  LIG11      -0.5621
     14 N          -0.2791   -0.0066    2.9608 N.ar    1  LIG11      -0.1535
     15 N           0.9982   -1.2910    1.8895 N.ar    1  LIG11      -0.3597
     16 N           0.9244   -0.5609    3.0046 N.ar    1  LIG11      -0.0878
     17 C          -1.9896    5.1994   -1.9842 C.3     1  LIG11      -0.0201
     18 C          -2.2500    4.0093   -2.8848 C.ar    1  LIG11      -0.0266
     19 C          -1.9227    4.7925   -0.5114 C.3     1  LIG11      -0.0586
     20 C          -0.7252    5.9548   -2.4031 C.3     1  LIG11      -0.0586
     21 C          -2.6547    1.9028   -4.5740 C.ar    1  LIG11       0.1969
     22 C          -3.4108    3.9609   -3.6677 C.ar    1  LIG11      -0.0535
     23 C          -1.3546    2.9419   -2.9957 C.ar    1  LIG11       0.0332
     24 C          -3.6190    2.8973   -4.5381 C.ar    1  LIG11      -0.0160
     25 C          -4.2314   -0.6329   -3.7658 C.ar    1  LIG11       0.1882
     26 C          -5.5815   -0.6185   -4.0605 C.ar    1  LIG11       0.2307
     27 C          -6.3878   -0.5501   -2.9392 C.ar    1  LIG11       0.2641
     28 C          -4.5823   -0.2941   -1.5454 C.ar    1  LIG11       0.1659
     29 C          -4.0374    0.0065   -0.2137 C.ar    1  LIG11       0.0227
     30 C          -6.9691   -0.0032   -5.9045 C.ar    1  LIG11       0.1702
     31 C          -2.7280   -0.3594    0.1385 C.ar    1  LIG11      -0.0252
     32 C          -4.7932    0.6897    0.7474 C.ar    1  LIG11      -0.0328
     33 C          -8.3078   -1.8479   -3.4571 C.3     1  LIG11       0.1143
     34 C          -7.6410   -0.5165   -7.0277 C.ar    1  LIG11       0.1621
     35 C          -2.2298   -0.0364    1.3986 C.ar    1  LIG11       0.0708
     36 C          -7.3245    1.2623   -5.4175 C.ar    1  LIG11      -0.0157
     37 C          -4.2222    0.9850    1.9731 C.ar    1  LIG11       0.0289
     38 C          -7.7672   -3.1254   -2.8121 C.3     1  LIG11       0.0783
     39 C          -8.7143    0.1885   -7.5808 C.ar    1  LIG11      -0.0163
     40 C          -8.3861    1.9685   -5.9897 C.ar    1  LIG11      -0.0581
     41 C          -9.0882    1.4271   -7.0631 C.ar    1  LIG11      -0.0581
     42 C          -0.8771   -0.4338    1.7939 C.ar    1  LIG11       0.0207
     43 C          -6.0175   -2.0245   -7.8289 C.3     1  LIG11       0.0790
@<TRIPOS>BOND
     1     1    21    1
     2     1     8    1
     3     1     4    2
     4     1     3    2
     5     2    26    1
     6     2    30    1
     7     5    27    1
     8     5    33    1
     9     6    34    1
    10     6    43    1
    11     7    38    1
    12     8    25    1
    13     9    23   ar
    14     9    21   ar
    15    10    25   ar
    16    10    28   ar
    17    11    27   ar
    18    11    28   ar
    19    12    37   ar
    20    12    35   ar
    21    13    15   ar
    22    13    42   ar
    23    14    42   ar
    24    14    16   ar
    25    15    16   ar
    26    17    18    1
    27    17    20    1
    28    17    19    1
    29    18    23   ar
    30    18    22   ar
    31    21    24   ar
    32    22    24   ar
    33    25    26   ar
    34    26    27   ar
    35    28    29    1
    36    29    31   ar
    37    29    32   ar
    38    30    36   ar
    39    30    34   ar
    40    31    35   ar
    41    32    37   ar
    42    33    38    1
    43    34    39   ar
    44    35    42    1
    45    36    40   ar
    46    39    41   ar
    47    40    41   ar
@<TRIPOS>MOLECULE
../ET1/ET1_17-21_50CONFORMERS.pdb
 47 48 0 0 0
SMALL
GASTEIGER

@<TRIPOS>ATOM
      1  N         -4.8610   -0.2350   -1.3410 N.3    17  LEU17      -0.1231
      2  CA        -6.1980   -0.6940   -1.8490 C.3    17  LEU17       0.1693
      3  CB        -6.3930   -2.1110   -1.2450 C.3    17  LEU17       0.0284
      4  CG        -7.8050   -2.6450   -1.5590 C.3    17  LEU17       0.0019
      5  CD1       -8.0140   -2.9180   -3.0380 C.3    17  LEU17       0.0001
      6  CD2       -7.9070   -3.9870   -0.9150 C.3    17  LEU17       0.0001
      7  C         -7.2730    0.3850   -1.5790 C.2    17  LEU17       0.2592
      8  O         -8.0840    0.6620   -2.4580 O.2    17  LEU17      -0.2718
      9  N         -7.2350    1.0770   -0.4310 N.am   18  ASP18      -0.1960
     10  CA        -8.2450    2.0950   -0.0220 C.3    18  ASP18       0.1840
     11  CB        -9.3620    1.4500    0.8640 C.3    18  ASP18       0.1450
     12  CG       -10.6720    2.2570    1.0000 C.2    18  ASP18       0.3671
     13  OD1      -11.6310    1.9220    0.2700 O.co2  18  ASP18      -0.2456
     14  OD2      -10.5730    3.2610    1.7420 O.co2  18  ASP18      -0.2456
     15  C         -7.6690    3.3430    0.6470 C.2    18  ASP18       0.2622
     16  O         -8.1140    4.4430    0.3020 O.2    18  ASP18      -0.2715
     17  N         -6.7110    3.1950    1.5940 N.am   19  ILE19      -0.1963
     18  CA        -6.0160    4.3380    2.1630 C.3    19  ILE19       0.1727
     19  CB        -5.0550    3.8790    3.3490 C.3    19  ILE19       0.0290
     20  CG2       -4.4720    5.1840    3.9940 C.3    19  ILE19       0.0023
     21  CG1       -5.7460    2.9110    4.3260 C.3    19  ILE19       0.0022
     22  CD1       -4.7660    1.9810    5.1360 C.3    19  ILE19       0.0001
     23  C         -5.2160    5.0880    1.1020 C.2    19  ILE19       0.2616
     24  O         -4.9940    6.2970    1.0190 O.2    19  ILE19      -0.2715
     25  N         -4.7410    4.3480    0.0970 N.am   20  ILE20      -0.1963
     26  CA        -4.1220    4.8230   -1.1620 C.3    20  ILE20       0.1727
     27  CB        -2.5890    4.6890   -1.2580 C.3    20  ILE20       0.0290
     28  CG2       -2.0360    5.2650   -2.5660 C.3    20  ILE20       0.0023
     29  CG1       -1.8000    5.2360   -0.0430 C.3    20  ILE20       0.0022
     30  CD1       -0.3250    4.8950   -0.2060 C.3    20  ILE20       0.0001
     31  C         -4.9050    4.2320   -2.2970 C.2    20  ILE20       0.2617
     32  O         -4.8850    3.0030   -2.5220 O.2    20  ILE20      -0.2715
     33  N         -5.7970    5.0310   -2.9350 N.am   21  TRP21      -0.1941
     34  CA        -6.6830    4.6520   -4.0820 C.3    21  TRP21       0.1982
     35  CB        -8.1130    4.2690   -3.5790 C.3    21  TRP21       0.0394
     36  CG        -8.8290    3.5660   -4.6970 C.3    21  TRP21       0.0475
     37  CD1       -9.9260    4.0510   -5.2650 C.3    21  TRP21       0.1166
     38  NE1      -10.2060    3.2220   -6.3210 N.pl3  21  TRP21      -0.2376
     39  CE2       -9.3890    2.1000   -6.4570 C.ar   21  TRP21       0.0614
     40  CZ2       -9.1720    1.1080   -7.4220 C.ar   21  TRP21       0.0158
     41  CH2       -8.0480    0.2790   -7.2920 C.ar   21  TRP21       0.0013
     42  CZ3       -7.2130    0.4420   -6.1700 C.ar   21  TRP21      -0.0002
     43  CE3       -7.3150    1.4940   -5.3170 C.ar   21  TRP21      -0.0030
     44  CD2       -8.4260    2.3550   -5.4210 C.ar   21  TRP21      -0.0059
     45  C         -6.7050    5.7420   -5.1900 C.2    21  TRP21       0.3842
     46  O         -6.0970    5.4510   -6.2480 O.co2  21  TRP21      -0.2437
     47  OXT       -7.3810    6.7920   -5.1470 O.co2  21  TRP21      -0.2437
@<TRIPOS>BOND
     1    40    41   ar
     2    40    39   ar
     3    41    42   ar
     4    39    38    1
     5    39    44   ar
     6    42    43   ar
     7    38    37    1
     8    43    44   ar
     9    44    36    1
    10    37    36    1
    11    36    35    1
    12    47    45   ar
    13     5     4    1
    14    35    34    1
    15    45    34    1
    16    45    46   ar
    17    34    33    1
    18     8     7    2
    19     4     6    1
    20     4     3    1
    21     2     3    1
    22     2     1    1
    23     2     7    1
    24     7     9   am
    25    33    31   am
    26    32    31    2
    27    31    26    1
    28     9    10    1
    29    10    11    1
    30    10    15    1
    31    26    27    1
    32    26    25    1
    33    11    12    1
    34    13    12   ar
    35    27    29    1
    36    27    28    1
    37    29    30    1
    38    16    15    2
    39    15    17   am
    40    12    14   ar
    41    25    23   am
    42    17    18    1
    43    23    24    2
    44    23    18    1
    45    18    19    1
    46    19    21    1
    47    19    20    1
    48    21    22    1
