@<TRIPOS>MOLECULE
../ET1/ET1_17-21_50CONFORMERS_NOBACKBONE.pdb
 26 23 0 0 0
SMALL
GASTEIGER

@<TRIPOS>ATOM
      1  CB        -6.0850   -1.9670   -2.1820 C.3    17  LEU17       0.0000
      2  CG        -7.3340   -2.5880   -2.7960 C.3    17  LEU17       0.0000
      3  CD1       -7.4250   -2.4090   -4.2950 C.3    17  LEU17       0.0000
      4  CD2       -7.4090   -4.0510   -2.4650 C.3    17  LEU17       0.0000
      5  CB        -9.1460    0.7970    0.0700 C.3    18  ASP18       0.1258
      6  CG       -10.2430    1.6360    0.7450 C.2    18  ASP18       0.3654
      7  OD1      -11.1580    2.1030   -0.0320 O.co2  18  ASP18      -0.2456
      8  OD2      -10.2610    1.9150    1.9250 O.co2  18  ASP18      -0.2456
      9  CB        -5.2160    2.7890    3.1390 C.3    19  ILE19       0.0000
     10  CG2       -4.4440    3.8540    3.9910 C.3    19  ILE19       0.0000
     11  CG1       -6.0400    1.8870    4.0960 C.3    19  ILE19       0.0000
     12  CD1       -5.1110    0.9590    4.9040 C.3    19  ILE19       0.0000
     13  CB        -2.1460    5.2950   -0.0930 C.3    20  ILE20       0.0000
     14  CG2       -1.9600    5.9630    1.3060 C.3    20  ILE20       0.0000
     15  CG1       -1.3370    3.9740   -0.1220 C.3    20  ILE20       0.0000
     16  CD1        0.1570    4.1830   -0.4360 C.3    20  ILE20       0.0000
     17  CB        -4.4770    5.0950   -4.9030 C.3    21  TRP21       0.0066
     18  CG        -4.8140    4.5200   -6.2350 C.3    21  TRP21       0.0452
     19  CD1       -4.6520    5.1490   -7.4390 C.3    21  TRP21       0.1165
     20  NE1       -5.0290    4.2920   -8.4040 N.pl3  21  TRP21      -0.2376
     21  CE2       -5.4550    3.0800   -7.9810 C.ar   21  TRP21       0.0614
     22  CZ2       -6.1090    2.0350   -8.6480 C.ar   21  TRP21       0.0158
     23  CH2       -6.5170    0.8700   -7.8740 C.ar   21  TRP21       0.0013
     24  CZ3       -6.3330    0.9220   -6.4870 C.ar   21  TRP21      -0.0002
     25  CE3       -5.8970    2.0910   -5.8240 C.ar   21  TRP21      -0.0030
     26  CD2       -5.3620    3.1860   -6.5430 C.ar   21  TRP21      -0.0059
@<TRIPOS>BOND
     1    22    23   ar
     2    22    21   ar
     3    23    24   ar
     4    21    20    1
     5    21    26   ar
     6    24    25   ar
     7    20    19    1
     8    25    26   ar
     9    26    18    1
    10    19    18    1
    11    18    17    1
    12     3     2    1
    13     2     4    1
    14     2     1    1
    15     5     6    1
    16     7     6   ar
    17    13    15    1
    18    13    14    1
    19    15    16    1
    20     6     8   ar
    21     9    11    1
    22     9    10    1
    23    11    12    1
@<TRIPOS>MOLECULE
104865
 39 42 0 0 0
SMALL
GASTEIGER

@<TRIPOS>ATOM
      1 S          -6.3180    0.9312   -1.7237 S.O2    1  LIG11       0.0736
      2 O          -7.0601    0.5598   -0.5368 O.2     1  LIG11      -0.1499
      3 O          -6.9936    1.4746   -2.8795 O.2     1  LIG11      -0.1499
      4 O          -5.6467   -0.0330   -4.9955 O.3     1  LIG11      -0.4435
      5 O          -3.1497    0.1282   -6.3945 O.3     1  LIG11      -0.4715
      6 O          -7.0278   -1.0915   -7.3596 O.3     1  LIG11      -0.4914
      7 O          -2.4371   -2.3659   -7.7724 O.3     1  LIG11      -0.3917
      8 N          -5.4391   -0.4325   -2.1801 N.pl3   1  LIG11      -0.1963
      9 N          -3.1914   -0.2597   -2.3295 N.ar    1  LIG11      -0.2044
     10 N          -2.0132    0.1000   -4.3574 N.ar    1  LIG11      -0.1866
     11 N           0.2880    0.6298   -2.8478 N.ar    1  LIG11      -0.2331
     12 N          -0.7395   -0.4954   -1.0073 N.ar    1  LIG11      -0.2331
     13 C          -1.8585    4.8077   -0.0925 C.3     1  LIG11      -0.0127
     14 C          -3.0102    3.8731   -0.5028 C.ar    1  LIG11      -0.0419
     15 C          -2.2806    5.6187    1.1497 C.3     1  LIG11      -0.0560
     16 C          -0.5988    3.9777    0.2407 C.3     1  LIG11      -0.0560
     17 C          -1.4532    5.8175   -1.1908 C.3     1  LIG11      -0.0560
     18 C          -3.4153    2.8295    0.3567 C.ar    1  LIG11      -0.0562
     19 C          -3.7021    4.0221   -1.7174 C.ar    1  LIG11      -0.0562
     20 C          -5.0725    2.0960   -1.2263 C.ar    1  LIG11       0.1086
     21 C          -4.4378    1.9463    0.0037 C.ar    1  LIG11      -0.0348
     22 C          -4.7318    3.1473   -2.0746 C.ar    1  LIG11      -0.0348
     23 C          -4.3292   -0.2243   -3.0367 C.ar    1  LIG11       0.1883
     24 C          -4.4190   -0.0016   -4.3960 C.ar    1  LIG11       0.2307
     25 C          -3.1888    0.0836   -5.0190 C.ar    1  LIG11       0.2642
     26 C          -2.0526   -0.0474   -3.0173 C.ar    1  LIG11       0.2027
     27 C          -5.8883    0.7401   -6.1092 C.ar    1  LIG11       0.1702
     28 C          -0.7730    0.0292   -2.2563 C.ar    1  LIG11       0.1978
     29 C          -1.8767   -0.1375   -6.9951 C.3     1  LIG11       0.1143
     30 C          -6.5539    0.1843   -7.2125 C.ar    1  LIG11       0.1621
     31 C          -5.5193    2.0960   -6.1320 C.ar    1  LIG11      -0.0157
     32 C          -6.7553    0.9777   -8.3515 C.ar    1  LIG11      -0.0163
     33 C          -1.5279   -1.6272   -6.9582 C.3     1  LIG11       0.0783
     34 C          -5.7394    2.8754   -7.2689 C.ar    1  LIG11      -0.0581
     35 C          -6.3489    2.3126   -8.3840 C.ar    1  LIG11      -0.0581
     36 C           1.4212    0.7067   -2.1269 C.ar    1  LIG11       0.0315
     37 C           0.4255   -0.3997   -0.3410 C.ar    1  LIG11       0.0315
     38 C           1.5481    0.2014   -0.8560 C.ar    1  LIG11      -0.0254
     39 C          -7.2747   -1.8453   -6.1820 C.3     1  LIG11       0.0790
@<TRIPOS>BOND
     1     1     2    2
     2     1     3    2
     3     1     8    1
     4     1    20    1
     5     4    24    1
     6     4    27    1
     7     5    25    1
     8     5    29    1
     9     6    30    1
    10     6    39    1
    11     7    33    1
    12     8    23    1
    13     9    23   ar
    14     9    26   ar
    15    10    25   ar
    16    10    26   ar
    17    11    28   ar
    18    11    36   ar
    19    12    28   ar
    20    12    37   ar
    21    13    14    1
    22    13    15    1
    23    13    16    1
    24    13    17    1
    25    14    18   ar
    26    14    19   ar
    27    18    21   ar
    28    19    22   ar
    29    20    21   ar
    30    20    22   ar
    31    23    24   ar
    32    24    25   ar
    33    26    28    1
    34    27    30   ar
    35    27    31   ar
    36    29    33    1
    37    30    32   ar
    38    31    34   ar
    39    32    35   ar
    40    34    35   ar
    41    36    38   ar
    42    37    38   ar
@<TRIPOS>MOLECULE
../ET1/ET1_17-21_50CONFORMERS.pdb
 47 48 0 0 0
SMALL
GASTEIGER

@<TRIPOS>ATOM
      1  N         -4.3800   -0.1930   -2.1460 N.3    17  LEU17      -0.1231
      2  CA        -5.6730   -0.6100   -2.6680 C.3    17  LEU17       0.1693
      3  CB        -6.0850   -1.9670   -2.1820 C.3    17  LEU17       0.0284
      4  CG        -7.3340   -2.5880   -2.7960 C.3    17  LEU17       0.0019
      5  CD1       -7.4250   -2.4090   -4.2950 C.3    17  LEU17       0.0001
      6  CD2       -7.4090   -4.0510   -2.4650 C.3    17  LEU17       0.0001
      7  C         -6.8140    0.3980   -2.3170 C.2    17  LEU17       0.2592
      8  O         -7.5720    0.7280   -3.2550 O.2    17  LEU17      -0.2718
      9  N         -6.9480    0.7980   -1.0700 N.am   18  ASP18      -0.1960
     10  CA        -8.0730    1.6390   -0.5740 C.3    18  ASP18       0.1840
     11  CB        -9.1460    0.7970    0.0700 C.3    18  ASP18       0.1450
     12  CG       -10.2430    1.6360    0.7450 C.2    18  ASP18       0.3671
     13  OD1      -11.1580    2.1030   -0.0320 O.co2  18  ASP18      -0.2456
     14  OD2      -10.2610    1.9150    1.9250 O.co2  18  ASP18      -0.2456
     15  C         -7.6390    2.8370    0.2650 C.2    18  ASP18       0.2622
     16  O         -8.1930    3.9310   -0.0250 O.2    18  ASP18      -0.2715
     17  N         -6.7770    2.6170    1.2250 N.am   19  ILE19      -0.1963
     18  CA        -6.1480    3.5270    2.1640 C.3    19  ILE19       0.1727
     19  CB        -5.2160    2.7890    3.1390 C.3    19  ILE19       0.0290
     20  CG2       -4.4440    3.8540    3.9910 C.3    19  ILE19       0.0023
     21  CG1       -6.0400    1.8870    4.0960 C.3    19  ILE19       0.0022
     22  CD1       -5.1110    0.9590    4.9040 C.3    19  ILE19       0.0001
     23  C         -5.3950    4.5880    1.3180 C.2    19  ILE19       0.2616
     24  O         -5.8370    5.7370    1.3250 O.2    19  ILE19      -0.2715
     25  N         -4.2790    4.2230    0.6550 N.am   20  ILE20      -0.1963
     26  CA        -3.6610    5.0950   -0.3920 C.3    20  ILE20       0.1727
     27  CB        -2.1460    5.2950   -0.0930 C.3    20  ILE20       0.0290
     28  CG2       -1.9600    5.9630    1.3060 C.3    20  ILE20       0.0023
     29  CG1       -1.3370    3.9740   -0.1220 C.3    20  ILE20       0.0022
     30  CD1        0.1570    4.1830   -0.4360 C.3    20  ILE20       0.0001
     31  C         -3.9280    4.5180   -1.7970 C.2    20  ILE20       0.2617
     32  O         -4.7540    3.6280   -1.9890 O.2    20  ILE20      -0.2715
     33  N         -3.1600    4.9460   -2.8570 N.am   21  TRP21      -0.1941
     34  CA        -3.1860    4.4840   -4.2250 C.3    21  TRP21       0.1982
     35  CB        -4.4770    5.0950   -4.9030 C.3    21  TRP21       0.0394
     36  CG        -4.8140    4.5200   -6.2350 C.3    21  TRP21       0.0475
     37  CD1       -4.6520    5.1490   -7.4390 C.3    21  TRP21       0.1166
     38  NE1       -5.0290    4.2920   -8.4040 N.pl3  21  TRP21      -0.2376
     39  CE2       -5.4550    3.0800   -7.9810 C.ar   21  TRP21       0.0614
     40  CZ2       -6.1090    2.0350   -8.6480 C.ar   21  TRP21       0.0158
     41  CH2       -6.5170    0.8700   -7.8740 C.ar   21  TRP21       0.0013
     42  CZ3       -6.3330    0.9220   -6.4870 C.ar   21  TRP21      -0.0002
     43  CE3       -5.8970    2.0910   -5.8240 C.ar   21  TRP21      -0.0030
     44  CD2       -5.3620    3.1860   -6.5430 C.ar   21  TRP21      -0.0059
     45  C         -1.8650    4.9190   -4.9680 C.2    21  TRP21       0.3842
     46  O         -1.5060    6.0640   -4.9070 O.co2  21  TRP21      -0.2437
     47  OXT       -1.1880    4.0070   -5.5150 O.co2  21  TRP21      -0.2437
@<TRIPOS>BOND
     1    40    41   ar
     2    40    39   ar
     3    41    42   ar
     4    39    38    1
     5    39    44   ar
     6    42    43   ar
     7    38    37    1
     8    43    44   ar
     9    44    36    1
    10    37    36    1
    11    36    35    1
    12    47    45   ar
    13     5     4    1
    14    35    34    1
    15    45    34    1
    16    45    46   ar
    17    34    33    1
    18     8     7    2
    19     4     6    1
    20     4     3    1
    21     2     3    1
    22     2     1    1
    23     2     7    1
    24     7     9   am
    25    33    31   am
    26    32    31    2
    27    31    26    1
    28     9    10    1
    29    10    11    1
    30    10    15    1
    31    26    27    1
    32    26    25    1
    33    11    12    1
    34    13    12   ar
    35    27    29    1
    36    27    28    1
    37    29    30    1
    38    16    15    2
    39    15    17   am
    40    12    14   ar
    41    25    23   am
    42    17    18    1
    43    23    24    2
    44    23    18    1
    45    18    19    1
    46    19    21    1
    47    19    20    1
    48    21    22    1
