@<TRIPOS>MOLECULE
../ET1/ET1_17-21_50CONFORMERS_NOBACKBONE.pdb
 26 23 0 0 0
SMALL
GASTEIGER

@<TRIPOS>ATOM
      1  CB        -6.0690   -1.5340   -0.4290 C.3    17  LEU17       0.0000
      2  CG        -7.4460   -2.3870   -0.3620 C.3    17  LEU17       0.0000
      3  CD1       -7.8390   -3.1540   -1.6370 C.3    17  LEU17       0.0000
      4  CD2       -7.3840   -3.4030    0.8280 C.3    17  LEU17       0.0000
      5  CB        -9.1170    0.9980    1.4200 C.3    18  ASP18       0.1258
      6  CG       -10.4570    1.5230    1.8190 C.2    18  ASP18       0.3654
      7  OD1      -11.4330    1.0230    1.2040 O.co2  18  ASP18      -0.2456
      8  OD2      -10.4760    2.4590    2.6900 O.co2  18  ASP18      -0.2456
      9  CB        -5.4400    4.5410    3.4180 C.3    19  ILE19       0.0000
     10  CG2       -4.7070    5.8630    3.7870 C.3    19  ILE19       0.0000
     11  CG1       -6.0250    3.8070    4.6680 C.3    19  ILE19       0.0000
     12  CD1       -7.2770    4.5760    5.2140 C.3    19  ILE19       0.0000
     13  CB        -2.8920    5.8920   -0.7660 C.3    20  ILE20       0.0000
     14  CG2       -2.8650    7.1560    0.1470 C.3    20  ILE20       0.0000
     15  CG1       -1.9340    4.8790   -0.1830 C.3    20  ILE20       0.0000
     16  CD1       -0.4350    5.3070   -0.1380 C.3    20  ILE20       0.0000
     17  CB        -5.5320    4.7740   -5.4590 C.3    21  TRP21       0.0066
     18  CG        -6.5470    3.7050   -5.2780 C.3    21  TRP21       0.0452
     19  CD1       -7.2530    3.5580   -4.1800 C.3    21  TRP21       0.1165
     20  NE1       -8.0440    2.4430   -4.2810 N.pl3  21  TRP21      -0.2376
     21  CE2       -8.0940    1.9430   -5.5820 C.ar   21  TRP21       0.0614
     22  CZ2       -8.8120    0.9040   -6.2120 C.ar   21  TRP21       0.0158
     23  CH2       -8.5650    0.7020   -7.5970 C.ar   21  TRP21       0.0013
     24  CZ3       -7.6360    1.4850   -8.2850 C.ar   21  TRP21      -0.0002
     25  CE3       -6.8670    2.4090   -7.5480 C.ar   21  TRP21      -0.0030
     26  CD2       -7.0830    2.7280   -6.2060 C.ar   21  TRP21      -0.0059
@<TRIPOS>BOND
     1    22    23   ar
     2    22    21   ar
     3    23    24   ar
     4    21    20    1
     5    21    26   ar
     6    24    25   ar
     7    20    19    1
     8    25    26   ar
     9    26    18    1
    10    19    18    1
    11    18    17    1
    12     3     2    1
    13     2     4    1
    14     2     1    1
    15     5     6    1
    16     7     6   ar
    17    13    15    1
    18    13    14    1
    19    15    16    1
    20     6     8   ar
    21     9    11    1
    22     9    10    1
    23    11    12    1
@<TRIPOS>MOLECULE
*****
 39 42 0 0 0
SMALL
GASTEIGER

@<TRIPOS>ATOM
      1 C          -2.6146   -2.5945    2.1819 C.ar    1  LIG11       0.0483
      2 C          -3.2143   -3.7537    2.6173 C.ar    1  LIG11       0.0543
      3 C          -4.4912   -3.9723    2.1549 C.ar    1  LIG11       0.0483
      4 N          -5.1350   -3.1293    1.3202 N.ar    1  LIG11      -0.2022
      5 N          -3.2095   -1.7147    1.3483 N.ar    1  LIG11      -0.2022
      6 C         -11.3683   -3.8879   -3.9554 C.ar    1  LIG11      -0.0504
      7 C         -10.8917   -2.7398   -3.3231 C.ar    1  LIG11      -0.0583
      8 C          -9.7054   -2.1294   -3.7542 C.ar    1  LIG11      -0.0535
      9 C          -8.9375   -2.6539   -4.8122 C.ar    1  LIG11      -0.0094
     10 C          -9.4604   -3.7898   -5.4571 C.ar    1  LIG11      -0.0535
     11 C         -10.6616   -4.3868   -5.0497 C.ar    1  LIG11      -0.0583
     12 C          -8.5023    2.0858   -5.7080 C.ar    1  LIG11      -0.0561
     13 C          -8.9902    0.9452   -6.3494 C.ar    1  LIG11      -0.0348
     14 C          -8.3235    0.4500   -7.4668 C.ar    1  LIG11       0.1086
     15 C          -7.2137    1.1171   -7.9838 C.ar    1  LIG11      -0.0348
     16 C          -6.7308    2.2573   -7.3329 C.ar    1  LIG11      -0.0561
     17 C          -6.8283    3.9943   -5.4131 C.3     1  LIG11       0.0132
     18 C          -7.3526    2.7572   -6.1737 C.ar    1  LIG11      -0.0394
     19 C          -6.4943    3.5838   -3.9595 C.3     1  LIG11      -0.0537
     20 C          -7.9133    5.1063   -5.3814 C.3     1  LIG11       0.0533
     21 C          -5.5388    4.5964   -6.0184 C.3     1  LIG11      -0.0537
     22 O          -8.2009    5.6120   -6.6829 O.3     1  LIG11      -0.3942
     23 S          -8.8884   -1.0585   -8.2244 S.O2    1  LIG11       0.0735
     24 O         -10.2166   -1.3287   -7.7213 O.2     1  LIG11      -0.1499
     25 O          -8.6496   -0.9467   -9.6495 O.2     1  LIG11      -0.1499
     26 N          -7.8585   -2.2852   -7.6777 N.pl3   1  LIG11      -0.1988
     27 C          -7.6173   -2.0836   -5.1949 C.ar    1  LIG11       0.0847
     28 C          -6.6825   -1.6017   -4.2742 C.ar    1  LIG11       0.2276
     29 N          -5.4467   -1.1589   -4.5887 N.ar    1  LIG11      -0.2008
     30 C          -5.1039   -1.2020   -5.8720 C.ar    1  LIG11       0.1219
     31 N          -5.8882   -1.6205   -6.8605 N.ar    1  LIG11      -0.2186
     32 C          -7.1192   -2.0252   -6.4951 C.ar    1  LIG11       0.1524
     33 C         -12.6406   -4.5405   -3.5040 C.3     1  LIG11      -0.0397
     34 O          -7.0059   -1.6428   -2.9334 O.3     1  LIG11      -0.4724
     35 C          -6.1438   -0.9343   -2.0399 C.3     1  LIG11       0.1252
     36 C          -5.9701   -1.7810   -0.7852 C.3     1  LIG11       0.1267
     37 O          -5.0246   -1.1433    0.0710 O.3     1  LIG11      -0.4590
     38 C          -4.4469   -2.0368    0.9435 C.ar    1  LIG11       0.3180
     39 BR         -2.3468   -4.9611    3.7620 Br      1  LIG11      -0.0472
@<TRIPOS>BOND
     1     1     2   ar
     2     2     3   ar
     3     2    39    1
     4     3     4   ar
     5     4    38   ar
     6     5     1   ar
     7     6     7   ar
     8     6    33    1
     9     7     8   ar
    10     8     9   ar
    11     9    10   ar
    12    10    11   ar
    13    11     6   ar
    14    12    13   ar
    15    13    14   ar
    16    14    15   ar
    17    15    16   ar
    18    16    18   ar
    19    17    18    1
    20    17    21    1
    21    17    20    1
    22    17    19    1
    23    18    12   ar
    24    20    22    1
    25    23    26    1
    26    23    25    2
    27    23    24    2
    28    23    14    1
    29    26    32    1
    30    27    28   ar
    31    27     9    1
    32    28    29   ar
    33    29    30   ar
    34    30    31   ar
    35    31    32   ar
    36    32    27   ar
    37    34    35    1
    38    34    28    1
    39    35    36    1
    40    36    37    1
    41    37    38    1
    42    38     5   ar
@<TRIPOS>MOLECULE
../ET1/ET1_17-21_50CONFORMERS.pdb
 47 48 0 0 0
SMALL
GASTEIGER

@<TRIPOS>ATOM
      1  N         -4.8380    0.2190   -1.4500 N.3    17  LEU17      -0.1231
      2  CA        -6.1180   -0.4840   -1.5530 C.3    17  LEU17       0.1693
      3  CB        -6.0690   -1.5340   -0.4290 C.3    17  LEU17       0.0284
      4  CG        -7.4460   -2.3870   -0.3620 C.3    17  LEU17       0.0019
      5  CD1       -7.8390   -3.1540   -1.6370 C.3    17  LEU17       0.0001
      6  CD2       -7.3840   -3.4030    0.8280 C.3    17  LEU17       0.0001
      7  C         -7.2430    0.4490   -1.2720 C.2    17  LEU17       0.2592
      8  O         -8.1430    0.4820   -2.1170 O.2    17  LEU17      -0.2718
      9  N         -7.2740    1.1700   -0.1630 N.am   18  ASP18      -0.1960
     10  CA        -8.4090    1.9290    0.4120 C.3    18  ASP18       0.1840
     11  CB        -9.1170    0.9980    1.4200 C.3    18  ASP18       0.1450
     12  CG       -10.4570    1.5230    1.8190 C.2    18  ASP18       0.3671
     13  OD1      -11.4330    1.0230    1.2040 O.co2  18  ASP18      -0.2456
     14  OD2      -10.4760    2.4590    2.6900 O.co2  18  ASP18      -0.2456
     15  C         -8.0090    3.3420    0.8700 C.2    18  ASP18       0.2622
     16  O         -8.4650    4.3500    0.2810 O.2    18  ASP18      -0.2715
     17  N         -7.0310    3.4560    1.7660 N.am   19  ILE19      -0.1963
     18  CA        -6.4400    4.7140    2.2270 C.3    19  ILE19       0.1727
     19  CB        -5.4400    4.5410    3.4180 C.3    19  ILE19       0.0290
     20  CG2       -4.7070    5.8630    3.7870 C.3    19  ILE19       0.0023
     21  CG1       -6.0250    3.8070    4.6680 C.3    19  ILE19       0.0022
     22  CD1       -7.2770    4.5760    5.2140 C.3    19  ILE19       0.0001
     23  C         -5.7030    5.4830    1.0410 C.2    19  ILE19       0.2616
     24  O         -5.8800    6.7320    0.9460 O.2    19  ILE19      -0.2715
     25  N         -4.8740    4.8150    0.2290 N.am   20  ILE20      -0.1963
     26  CA        -4.3690    5.4790   -1.0000 C.3    20  ILE20       0.1727
     27  CB        -2.8920    5.8920   -0.7660 C.3    20  ILE20       0.0290
     28  CG2       -2.8650    7.1560    0.1470 C.3    20  ILE20       0.0023
     29  CG1       -1.9340    4.8790   -0.1830 C.3    20  ILE20       0.0022
     30  CD1       -0.4350    5.3070   -0.1380 C.3    20  ILE20       0.0001
     31  C         -4.5040    4.6100   -2.2710 C.2    20  ILE20       0.2617
     32  O         -4.8620    3.4090   -2.1590 O.2    20  ILE20      -0.2715
     33  N         -4.2840    5.2770   -3.4300 N.am   21  TRP21      -0.1941
     34  CA        -4.1630    4.6270   -4.7570 C.3    21  TRP21       0.1982
     35  CB        -5.5320    4.7740   -5.4590 C.3    21  TRP21       0.0394
     36  CG        -6.5470    3.7050   -5.2780 C.3    21  TRP21       0.0475
     37  CD1       -7.2530    3.5580   -4.1800 C.3    21  TRP21       0.1166
     38  NE1       -8.0440    2.4430   -4.2810 N.pl3  21  TRP21      -0.2376
     39  CE2       -8.0940    1.9430   -5.5820 C.ar   21  TRP21       0.0614
     40  CZ2       -8.8120    0.9040   -6.2120 C.ar   21  TRP21       0.0158
     41  CH2       -8.5650    0.7020   -7.5970 C.ar   21  TRP21       0.0013
     42  CZ3       -7.6360    1.4850   -8.2850 C.ar   21  TRP21      -0.0002
     43  CE3       -6.8670    2.4090   -7.5480 C.ar   21  TRP21      -0.0030
     44  CD2       -7.0830    2.7280   -6.2060 C.ar   21  TRP21      -0.0059
     45  C         -3.0270    5.2180   -5.5660 C.2    21  TRP21       0.3842
     46  O         -3.1020    6.3970   -5.9350 O.co2  21  TRP21      -0.2437
     47  OXT       -2.0770    4.5110   -5.9220 O.co2  21  TRP21      -0.2437
@<TRIPOS>BOND
     1    40    41   ar
     2    40    39   ar
     3    41    42   ar
     4    39    38    1
     5    39    44   ar
     6    42    43   ar
     7    38    37    1
     8    43    44   ar
     9    44    36    1
    10    37    36    1
    11    36    35    1
    12    47    45   ar
    13     5     4    1
    14    35    34    1
    15    45    34    1
    16    45    46   ar
    17    34    33    1
    18     8     7    2
    19     4     6    1
    20     4     3    1
    21     2     3    1
    22     2     1    1
    23     2     7    1
    24     7     9   am
    25    33    31   am
    26    32    31    2
    27    31    26    1
    28     9    10    1
    29    10    11    1
    30    10    15    1
    31    26    27    1
    32    26    25    1
    33    11    12    1
    34    13    12   ar
    35    27    29    1
    36    27    28    1
    37    29    30    1
    38    16    15    2
    39    15    17   am
    40    12    14   ar
    41    25    23   am
    42    17    18    1
    43    23    24    2
    44    23    18    1
    45    18    19    1
    46    19    21    1
    47    19    20    1
    48    21    22    1
