@<TRIPOS>MOLECULE
../ET1/ET1_17-21_50CONFORMERS_NOBACKBONE.pdb
 26 23 0 0 0
SMALL
GASTEIGER

@<TRIPOS>ATOM
      1  CB        -5.6560   -2.0130   -0.9140 C.3    17  LEU17       0.0000
      2  CG        -7.0430   -2.5080   -0.6020 C.3    17  LEU17       0.0000
      3  CD1       -7.7900   -3.0040   -1.8120 C.3    17  LEU17       0.0000
      4  CD2       -7.1720   -3.5500    0.4900 C.3    17  LEU17       0.0000
      5  CB        -8.8680    1.4860    0.1670 C.3    18  ASP18       0.1258
      6  CG       -10.2320    2.1200   -0.0550 C.2    18  ASP18       0.3654
      7  OD1      -10.8920    1.6370   -1.0120 O.co2  18  ASP18      -0.2456
      8  OD2      -10.6300    3.0590    0.6490 O.co2  18  ASP18      -0.2456
      9  CB        -5.9660    4.7960    2.7400 C.3    19  ILE19       0.0000
     10  CG2       -4.6800    4.0440    2.8270 C.3    19  ILE19       0.0000
     11  CG1       -5.7570    6.1350    3.5640 C.3    19  ILE19       0.0000
     12  CD1       -6.9460    7.0030    3.7030 C.3    19  ILE19       0.0000
     13  CB        -2.2100    5.4370   -1.2690 C.3    20  ILE20       0.0000
     14  CG2       -1.8610    6.5760   -0.2560 C.3    20  ILE20       0.0000
     15  CG1       -1.5260    4.1100   -0.9140 C.3    20  ILE20       0.0000
     16  CD1       -0.0200    4.2560   -0.6990 C.3    20  ILE20       0.0000
     17  CB        -6.7280    3.3830   -4.1640 C.3    21  TRP21       0.0066
     18  CG        -7.1910    2.3800   -5.1940 C.3    21  TRP21       0.0452
     19  CD1       -8.2010    2.5130   -6.1000 C.3    21  TRP21       0.1165
     20  NE1       -8.2490    1.3760   -6.9010 N.pl3  21  TRP21      -0.2376
     21  CE2       -7.1040    0.6070   -6.6890 C.ar   21  TRP21       0.0614
     22  CZ2       -6.5890   -0.5400   -7.3230 C.ar   21  TRP21       0.0158
     23  CH2       -5.3990   -1.1090   -6.8770 C.ar   21  TRP21       0.0013
     24  CZ3       -4.8390   -0.5650   -5.6710 C.ar   21  TRP21      -0.0002
     25  CE3       -5.4260    0.5390   -4.9710 C.ar   21  TRP21      -0.0030
     26  CD2       -6.4960    1.1980   -5.5550 C.ar   21  TRP21      -0.0059
@<TRIPOS>BOND
     1    22    23   ar
     2    22    21   ar
     3    23    24   ar
     4    21    20    1
     5    21    26   ar
     6    24    25   ar
     7    20    19    1
     8    25    26   ar
     9    26    18    1
    10    19    18    1
    11    18    17    1
    12     3     2    1
    13     2     4    1
    14     2     1    1
    15     5     6    1
    16     7     6   ar
    17    13    15    1
    18    13    14    1
    19    15    16    1
    20     6     8   ar
    21     9    11    1
    22     9    10    1
    23    11    12    1
@<TRIPOS>MOLECULE
11672244
 53 58 0 0 0
SMALL
GASTEIGER

@<TRIPOS>ATOM
      1 O          -5.2255    3.1935   -1.1362 O.3     1  LIG11      -0.4607
      2 O           1.3799    1.2004   -3.3226 O.2     1  LIG11      -0.2968
      3 O          -4.3384    8.1821    2.9866 O.co2   1  LIG11      -0.5492
      4 O          -6.0538    9.0396    1.7737 O.co2   1  LIG11      -0.5492
      5 O          -7.4775    3.6844   -1.0973 O.2     1  LIG11      -0.2456
      6 O          -5.7780    1.3965   -8.1589 O.3     1  LIG11      -0.5067
      7 O          -7.4580   -0.5056   -2.2467 O.2     1  LIG11      -0.2705
      8 O          -5.9199   -4.5790    0.2891 O.co2   1  LIG11      -0.5452
      9 O          -8.1784   -4.7408    0.6029 O.co2   1  LIG11      -0.5452
     10 N          -5.6300   -1.4318   -3.3693 N.am    1  LIG11      -0.2815
     11 C          -2.9381    5.3070   -0.4815 C.3     1  LIG11      -0.0160
     12 C          -1.8951    4.2652    0.0680 C.3     1  LIG11      -0.0256
     13 C          -4.3441    5.1020    0.3471 C.3     1  LIG11       0.0318
     14 C          -0.5793    4.0015   -0.8016 C.3     1  LIG11      -0.0243
     15 C          -1.0310    3.7624   -2.2844 C.3     1  LIG11      -0.0235
     16 C          -3.1225    5.1469   -2.0141 C.3     1  LIG11      -0.0461
     17 C          -4.0625    5.1834    1.8749 C.2     1  LIG11      -0.0596
     18 C          -5.2748    5.4823    2.7807 C.3     1  LIG11      -0.0080
     19 C          -1.8242    4.9788   -2.8036 C.3     1  LIG11      -0.0483
     20 C          -5.3605    6.1981   -0.0988 C.3     1  LIG11      -0.0392
     21 C          -1.6284    4.5236    1.5692 C.3     1  LIG11      -0.0306
     22 C          -6.1069    6.6923    2.2963 C.3     1  LIG11       0.0167
     23 C           0.0574    3.2340   -3.2791 C.3     1  LIG11       0.0267
     24 C           0.0687    2.6750   -0.3082 C.3     1  LIG11      -0.0404
     25 C          -6.5489    6.4170    0.8391 C.3     1  LIG11      -0.0408
     26 C          -2.4096    6.7665   -0.2629 C.3     1  LIG11      -0.0584
     27 C          -2.8369    4.9106    2.3678 C.2     1  LIG11      -0.0835
     28 C          -5.0222    3.6802    0.1958 C.3     1  LIG11       0.1025
     29 C           0.4777    5.1244   -0.6614 C.3     1  LIG11      -0.0590
     30 C          -5.0121    5.5003    4.3086 C.3     1  LIG11      -0.0405
     31 C          -7.3859    6.8382    3.1606 C.3     1  LIG11      -0.0412
     32 C           1.2188    2.1791   -1.1717 C.3     1  LIG11       0.0069
     33 C          -6.2909    5.6690    5.1624 C.3     1  LIG11      -0.0343
     34 C           0.8729    2.0963   -2.6389 C.2     1  LIG11       0.1392
     35 C          -7.1029    6.8787    4.6632 C.3     1  LIG11      -0.0470
     36 C           1.0419    4.2982   -3.7871 C.3     1  LIG11      -0.0528
     37 C          -0.6486    2.6333   -4.5252 C.3     1  LIG11      -0.0528
     38 C          -5.4274    8.1017    2.3523 C.2     1  LIG11       0.0485
     39 C          -5.8839    5.9100    6.6291 C.3     1  LIG11      -0.0598
     40 C          -7.1447    4.3840    5.1232 C.3     1  LIG11      -0.0598
     41 C          -6.4976    3.1570   -1.5996 C.2     1  LIG11       0.3320
     42 C          -6.5818    2.4014   -2.8669 C.2     1  LIG11       0.0231
     43 C          -5.6188    1.5742   -3.3017 C.2     1  LIG11      -0.0460
     44 C          -5.7444    0.7743   -4.5292 C.ar    1  LIG11      -0.0001
     45 C          -5.6411   -0.6323   -4.5330 C.ar    1  LIG11       0.0411
     46 C          -5.7970    1.4596   -5.7562 C.ar    1  LIG11      -0.0113
     47 C          -5.5145   -1.3142   -5.7530 C.ar    1  LIG11      -0.0364
     48 C          -5.7251    0.7555   -6.9556 C.ar    1  LIG11       0.1175
     49 C          -5.5713   -0.6228   -6.9629 C.ar    1  LIG11      -0.0184
     50 C          -6.5350   -1.3022   -2.3257 C.2     1  LIG11       0.2411
     51 C          -6.3284   -2.3946   -1.3425 C.2     1  LIG11       0.0021
     52 C          -7.3610   -3.0212   -0.7620 C.2     1  LIG11      -0.0344
     53 C          -7.1229   -4.2208    0.1454 C.2     1  LIG11       0.0647
@<TRIPOS>BOND
     1     1    41    1
     2     1    28    1
     3     2    34    2
     4     3    38   ar
     5     4    38   ar
     6     5    41    2
     7     6    48    1
     8     7    50    2
     9     8    53   ar
    10     9    53   ar
    11    10    45    1
    12    10    50   am
    13    11    16    1
    14    11    12    1
    15    11    26    1
    16    11    13    1
    17    12    14    1
    18    13    20    1
    19    13    17    1
    20    13    28    1
    21    14    15    1
    22    14    24    1
    23    14    29    1
    24    15    19    1
    25    15    23    1
    26    16    19    1
    27    17    18    1
    28    17    27    2
    29    18    30    1
    30    18    22    1
    31    20    25    1
    32    21    27    1
    33    21    12    1
    34    22    31    1
    35    22    25    1
    36    22    38    1
    37    23    34    1
    38    23    37    1
    39    23    36    1
    40    24    32    1
    41    30    33    1
    42    31    35    1
    43    32    34    1
    44    33    35    1
    45    33    40    1
    46    33    39    1
    47    41    42    1
    48    42    43    2
    49    43    44    1
    50    44    46   ar
    51    44    45   ar
    52    45    47   ar
    53    46    48   ar
    54    47    49   ar
    55    48    49   ar
    56    50    51    1
    57    51    52    2
    58    52    53    1
@<TRIPOS>MOLECULE
../ET1/ET1_17-21_50CONFORMERS.pdb
 47 48 0 0 0
SMALL
GASTEIGER

@<TRIPOS>ATOM
      1  N         -4.2010   -0.1720   -1.7670 N.3    17  LEU17      -0.1231
      2  CA        -5.4580   -0.8500   -1.9110 C.3    17  LEU17       0.1693
      3  CB        -5.6560   -2.0130   -0.9140 C.3    17  LEU17       0.0284
      4  CG        -7.0430   -2.5080   -0.6020 C.3    17  LEU17       0.0019
      5  CD1       -7.7900   -3.0040   -1.8120 C.3    17  LEU17       0.0001
      6  CD2       -7.1720   -3.5500    0.4900 C.3    17  LEU17       0.0001
      7  C         -6.6890    0.1240   -1.9280 C.2    17  LEU17       0.2592
      8  O         -7.5330    0.1470   -2.8350 O.2    17  LEU17      -0.2718
      9  N         -6.7310    1.0230   -0.9570 N.am   18  ASP18      -0.1960
     10  CA        -7.8670    2.0040   -0.9130 C.3    18  ASP18       0.1840
     11  CB        -8.8680    1.4860    0.1670 C.3    18  ASP18       0.1450
     12  CG       -10.2320    2.1200   -0.0550 C.2    18  ASP18       0.3671
     13  OD1      -10.8920    1.6370   -1.0120 O.co2  18  ASP18      -0.2456
     14  OD2      -10.6300    3.0590    0.6490 O.co2  18  ASP18      -0.2456
     15  C         -7.4570    3.4490   -0.4690 C.2    18  ASP18       0.2622
     16  O         -7.5790    4.4230   -1.2060 O.2    18  ASP18      -0.2715
     17  N         -6.7830    3.6660    0.6670 N.am   19  ILE19      -0.1963
     18  CA        -6.4730    4.9620    1.2510 C.3    19  ILE19       0.1727
     19  CB        -5.9660    4.7960    2.7400 C.3    19  ILE19       0.0290
     20  CG2       -4.6800    4.0440    2.8270 C.3    19  ILE19       0.0023
     21  CG1       -5.7570    6.1350    3.5640 C.3    19  ILE19       0.0022
     22  CD1       -6.9460    7.0030    3.7030 C.3    19  ILE19       0.0001
     23  C         -5.5000    5.7810    0.3390 C.2    19  ILE19       0.2616
     24  O         -5.7690    6.9650   -0.0340 O.2    19  ILE19      -0.2715
     25  N         -4.4450    5.0980   -0.2040 N.am   20  ILE20      -0.1963
     26  CA        -3.7630    5.4400   -1.4580 C.3    20  ILE20       0.1727
     27  CB        -2.2100    5.4370   -1.2690 C.3    20  ILE20       0.0290
     28  CG2       -1.8610    6.5760   -0.2560 C.3    20  ILE20       0.0023
     29  CG1       -1.5260    4.1100   -0.9140 C.3    20  ILE20       0.0022
     30  CD1       -0.0200    4.2560   -0.6990 C.3    20  ILE20       0.0001
     31  C         -4.2760    4.3340   -2.4360 C.2    20  ILE20       0.2617
     32  O         -4.0530    3.1690   -2.2790 O.2    20  ILE20      -0.2715
     33  N         -4.9410    4.8110   -3.4460 N.am   21  TRP21      -0.1941
     34  CA        -5.4130    4.0870   -4.6560 C.3    21  TRP21       0.1982
     35  CB        -6.7280    3.3830   -4.1640 C.3    21  TRP21       0.0394
     36  CG        -7.1910    2.3800   -5.1940 C.3    21  TRP21       0.0475
     37  CD1       -8.2010    2.5130   -6.1000 C.3    21  TRP21       0.1166
     38  NE1       -8.2490    1.3760   -6.9010 N.pl3  21  TRP21      -0.2376
     39  CE2       -7.1040    0.6070   -6.6890 C.ar   21  TRP21       0.0614
     40  CZ2       -6.5890   -0.5400   -7.3230 C.ar   21  TRP21       0.0158
     41  CH2       -5.3990   -1.1090   -6.8770 C.ar   21  TRP21       0.0013
     42  CZ3       -4.8390   -0.5650   -5.6710 C.ar   21  TRP21      -0.0002
     43  CE3       -5.4260    0.5390   -4.9710 C.ar   21  TRP21      -0.0030
     44  CD2       -6.4960    1.1980   -5.5550 C.ar   21  TRP21      -0.0059
     45  C         -5.6750    5.0260   -5.8140 C.2    21  TRP21       0.3842
     46  O         -6.3400    6.0940   -5.6060 O.co2  21  TRP21      -0.2437
     47  OXT       -5.1860    4.6870   -6.9310 O.co2  21  TRP21      -0.2437
@<TRIPOS>BOND
     1    40    41   ar
     2    40    39   ar
     3    41    42   ar
     4    39    38    1
     5    39    44   ar
     6    42    43   ar
     7    38    37    1
     8    43    44   ar
     9    44    36    1
    10    37    36    1
    11    36    35    1
    12    47    45   ar
    13     5     4    1
    14    35    34    1
    15    45    34    1
    16    45    46   ar
    17    34    33    1
    18     8     7    2
    19     4     6    1
    20     4     3    1
    21     2     3    1
    22     2     1    1
    23     2     7    1
    24     7     9   am
    25    33    31   am
    26    32    31    2
    27    31    26    1
    28     9    10    1
    29    10    11    1
    30    10    15    1
    31    26    27    1
    32    26    25    1
    33    11    12    1
    34    13    12   ar
    35    27    29    1
    36    27    28    1
    37    29    30    1
    38    16    15    2
    39    15    17   am
    40    12    14   ar
    41    25    23   am
    42    17    18    1
    43    23    24    2
    44    23    18    1
    45    18    19    1
    46    19    21    1
    47    19    20    1
    48    21    22    1
