@<TRIPOS>MOLECULE
../ET1/ET1_17-21_50CONFORMERS_NOBACKBONE.pdb
 26 23 0 0 0
SMALL
GASTEIGER

@<TRIPOS>ATOM
      1  CB        -5.8620   -1.5510   -0.6070 C.3    17  LEU17       0.0000
      2  CG        -7.2310   -2.3820   -0.5390 C.3    17  LEU17       0.0000
      3  CD1       -7.3890   -3.1660   -1.8290 C.3    17  LEU17       0.0000
      4  CD2       -7.3470   -3.3020    0.6760 C.3    17  LEU17       0.0000
      5  CB        -9.4220    1.2770    0.3900 C.3    18  ASP18       0.1258
      6  CG       -10.7420    2.1240    0.4710 C.2    18  ASP18       0.3654
      7  OD1      -11.2470    2.4210    1.5610 O.co2  18  ASP18      -0.2456
      8  OD2      -11.2580    2.4190   -0.6230 O.co2  18  ASP18      -0.2456
      9  CB        -5.2140    3.9810    2.8920 C.3    19  ILE19       0.0000
     10  CG2       -4.3270    5.0870    3.3860 C.3    19  ILE19       0.0000
     11  CG1       -5.8750    3.2300    3.9970 C.3    19  ILE19       0.0000
     12  CD1       -6.7470    4.1130    4.9470 C.3    19  ILE19       0.0000
     13  CB        -2.4750    5.1850   -1.2310 C.3    20  ILE20       0.0000
     14  CG2       -1.8340    5.3450   -2.6390 C.3    20  ILE20       0.0000
     15  CG1       -1.9920    6.3340   -0.2660 C.3    20  ILE20       0.0000
     16  CD1       -0.7680    5.9330    0.5270 C.3    20  ILE20       0.0000
     17  CB        -7.1870    4.3800   -4.5650 C.3    21  TRP21       0.0066
     18  CG        -7.8670    3.5040   -5.5950 C.3    21  TRP21       0.0452
     19  CD1       -8.9950    3.8550   -6.2390 C.3    21  TRP21       0.1165
     20  NE1       -9.3040    2.8850   -7.1860 N.pl3  21  TRP21      -0.2376
     21  CE2       -8.4130    1.8590   -7.1870 C.ar   21  TRP21       0.0614
     22  CZ2       -8.1890    0.6550   -7.8800 C.ar   21  TRP21       0.0158
     23  CH2       -7.1950   -0.2610   -7.5050 C.ar   21  TRP21       0.0013
     24  CZ3       -6.3860    0.0750   -6.4690 C.ar   21  TRP21      -0.0002
     25  CE3       -6.5790    1.2290   -5.7230 C.ar   21  TRP21      -0.0030
     26  CD2       -7.5250    2.1790   -6.0800 C.ar   21  TRP21      -0.0059
@<TRIPOS>BOND
     1    22    23   ar
     2    22    21   ar
     3    23    24   ar
     4    21    20    1
     5    21    26   ar
     6    24    25   ar
     7    20    19    1
     8    25    26   ar
     9    26    18    1
    10    19    18    1
    11    18    17    1
    12     3     2    1
    13     2     4    1
    14     2     1    1
    15     5     6    1
    16     7     6   ar
    17    13    15    1
    18    13    14    1
    19    15    16    1
    20     6     8   ar
    21     9    11    1
    22     9    10    1
    23    11    12    1
@<TRIPOS>MOLECULE
9912992
 34 37 0 0 0
SMALL
GASTEIGER

@<TRIPOS>ATOM
      1 S          -3.8857   -0.4758   -2.3887 S.O2    1  LIG11       0.0908
      2 O          -4.7885   -0.2295   -5.7463 O.3     1  LIG11      -0.4435
      3 O          -3.9880    1.7841   -7.6457 O.3     1  LIG11      -0.4771
      4 O          -3.4753   -1.4453   -1.3878 O.2     1  LIG11      -0.1484
      5 O          -5.2689   -0.4228   -2.8135 O.2     1  LIG11      -0.1484
      6 O          -5.8217    2.3211   -5.0111 O.3     1  LIG11      -0.4914
      7 N          -2.8749   -0.7814   -3.7096 N.pl3   1  LIG11      -0.1950
      8 N          -1.5816    0.9128   -4.4639 N.ar    1  LIG11      -0.2073
      9 N          -2.1381    2.2837   -6.3196 N.ar    1  LIG11      -0.1899
     10 N          -3.6657    2.1759   -2.6148 N.ar    1  LIG11      -0.2351
     11 N           1.8905    4.5997   -4.3047 N.ar    1  LIG11      -0.2632
     12 C          -2.7380    0.2554   -4.6642 C.ar    1  LIG11       0.1882
     13 C          -3.6670    0.5419   -5.6446 C.ar    1  LIG11       0.2307
     14 C          -3.4123    1.1439   -1.7669 C.ar    1  LIG11       0.1969
     15 C          -3.2645    1.5548   -6.4930 C.ar    1  LIG11       0.2638
     16 C          -1.3606    1.9573   -5.2760 C.ar    1  LIG11       0.1659
     17 C          -2.8148    1.2776   -0.5242 C.ar    1  LIG11      -0.0160
     18 C          -0.2258    2.8432   -4.9612 C.ar    1  LIG11       0.0222
     19 C          -5.9576    0.3005   -6.2536 C.ar    1  LIG11       0.1702
     20 C          -2.6788    3.6479   -0.9695 C.ar    1  LIG11      -0.0322
     21 C          -2.4444    2.5598   -0.1236 C.ar    1  LIG11      -0.0541
     22 C          -3.2869    3.3981   -2.1950 C.ar    1  LIG11       0.0327
     23 C          -6.5072    1.5511   -5.9127 C.ar    1  LIG11       0.1621
     24 C          -6.6403   -0.5491   -7.1337 C.ar    1  LIG11      -0.0157
     25 C          -2.3031    5.0452   -0.5920 C.3     1  LIG11      -0.0383
     26 C           0.5999    2.6145   -3.8498 C.ar    1  LIG11      -0.0329
     27 C           0.0530    3.9790   -5.7366 C.ar    1  LIG11      -0.0329
     28 C          -7.7189    1.9382   -6.5018 C.ar    1  LIG11      -0.0163
     29 C          -7.8415   -0.1490   -7.7151 C.ar    1  LIG11      -0.0581
     30 C          -8.3765    1.0965   -7.4034 C.ar    1  LIG11      -0.0581
     31 C           1.6257    3.5029   -3.5678 C.ar    1  LIG11       0.0282
     32 C           1.1004    4.8116   -5.3754 C.ar    1  LIG11       0.0282
     33 C          -3.8518    3.1132   -8.1319 C.3     1  LIG11       0.0805
     34 C          -6.2363    3.6707   -4.8572 C.3     1  LIG11       0.0790
@<TRIPOS>BOND
     1     1     4    2
     2     1     5    2
     3     1     7    1
     4     1    14    1
     5     2    13    1
     6     2    19    1
     7     3    15    1
     8     3    33    1
     9     6    23    1
    10     6    34    1
    11     7    12    1
    12     8    12   ar
    13     8    16   ar
    14     9    15   ar
    15     9    16   ar
    16    10    14   ar
    17    10    22   ar
    18    11    31   ar
    19    11    32   ar
    20    12    13   ar
    21    13    15   ar
    22    14    17   ar
    23    16    18    1
    24    17    21   ar
    25    18    26   ar
    26    18    27   ar
    27    19    23   ar
    28    19    24   ar
    29    20    21   ar
    30    20    22   ar
    31    20    25    1
    32    23    28   ar
    33    24    29   ar
    34    26    31   ar
    35    27    32   ar
    36    28    30   ar
    37    29    30   ar
@<TRIPOS>MOLECULE
../ET1/ET1_17-21_50CONFORMERS.pdb
 47 48 0 0 0
SMALL
GASTEIGER

@<TRIPOS>ATOM
      1  N         -4.6370    0.2280   -1.6770 N.3    17  LEU17      -0.1231
      2  CA        -5.8470   -0.5730   -1.7770 C.3    17  LEU17       0.1693
      3  CB        -5.8620   -1.5510   -0.6070 C.3    17  LEU17       0.0284
      4  CG        -7.2310   -2.3820   -0.5390 C.3    17  LEU17       0.0019
      5  CD1       -7.3890   -3.1660   -1.8290 C.3    17  LEU17       0.0001
      6  CD2       -7.3470   -3.3020    0.6760 C.3    17  LEU17       0.0001
      7  C         -7.0470    0.4590   -1.8040 C.2    17  LEU17       0.2592
      8  O         -7.8360    0.6160   -2.7880 O.2    17  LEU17      -0.2718
      9  N         -7.1650    1.0810   -0.6390 N.am   18  ASP18      -0.1960
     10  CA        -8.2780    2.0170   -0.3630 C.3    18  ASP18       0.1840
     11  CB        -9.4220    1.2770    0.3900 C.3    18  ASP18       0.1450
     12  CG       -10.7420    2.1240    0.4710 C.2    18  ASP18       0.3671
     13  OD1      -11.2470    2.4210    1.5610 O.co2  18  ASP18      -0.2456
     14  OD2      -11.2580    2.4190   -0.6230 O.co2  18  ASP18      -0.2456
     15  C         -7.8730    3.3030    0.4020 C.2    18  ASP18       0.2622
     16  O         -8.5120    4.3140    0.2440 O.2    18  ASP18      -0.2715
     17  N         -6.8430    3.2100    1.2280 N.am   19  ILE19      -0.1963
     18  CA        -6.1970    4.4050    1.7840 C.3    19  ILE19       0.1727
     19  CB        -5.2140    3.9810    2.8920 C.3    19  ILE19       0.0290
     20  CG2       -4.3270    5.0870    3.3860 C.3    19  ILE19       0.0023
     21  CG1       -5.8750    3.2300    3.9970 C.3    19  ILE19       0.0022
     22  CD1       -6.7470    4.1130    4.9470 C.3    19  ILE19       0.0001
     23  C         -5.4970    5.2280    0.7550 C.2    19  ILE19       0.2616
     24  O         -5.6520    6.4000    0.7480 O.2    19  ILE19      -0.2715
     25  N         -4.7100    4.5950   -0.1290 N.am   20  ILE20      -0.1963
     26  CA        -4.0250    5.1880   -1.3180 C.3    20  ILE20       0.1727
     27  CB        -2.4750    5.1850   -1.2310 C.3    20  ILE20       0.0290
     28  CG2       -1.8340    5.3450   -2.6390 C.3    20  ILE20       0.0023
     29  CG1       -1.9920    6.3340   -0.2660 C.3    20  ILE20       0.0022
     30  CD1       -0.7680    5.9330    0.5270 C.3    20  ILE20       0.0001
     31  C         -4.5650    4.3840   -2.5530 C.2    20  ILE20       0.2617
     32  O         -4.4910    3.1400   -2.5380 O.2    20  ILE20      -0.2715
     33  N         -5.0080    5.0510   -3.6370 N.am   21  TRP21      -0.1941
     34  CA        -5.6410    4.4400   -4.7680 C.3    21  TRP21       0.1982
     35  CB        -7.1870    4.3800   -4.5650 C.3    21  TRP21       0.0394
     36  CG        -7.8670    3.5040   -5.5950 C.3    21  TRP21       0.0475
     37  CD1       -8.9950    3.8550   -6.2390 C.3    21  TRP21       0.1166
     38  NE1       -9.3040    2.8850   -7.1860 N.pl3  21  TRP21      -0.2376
     39  CE2       -8.4130    1.8590   -7.1870 C.ar   21  TRP21       0.0614
     40  CZ2       -8.1890    0.6550   -7.8800 C.ar   21  TRP21       0.0158
     41  CH2       -7.1950   -0.2610   -7.5050 C.ar   21  TRP21       0.0013
     42  CZ3       -6.3860    0.0750   -6.4690 C.ar   21  TRP21      -0.0002
     43  CE3       -6.5790    1.2290   -5.7230 C.ar   21  TRP21      -0.0030
     44  CD2       -7.5250    2.1790   -6.0800 C.ar   21  TRP21      -0.0059
     45  C         -5.2790    5.3120   -5.9630 C.2    21  TRP21       0.3842
     46  O         -4.9460    4.7500   -6.9950 O.co2  21  TRP21      -0.2437
     47  OXT       -5.3170    6.5820   -5.9050 O.co2  21  TRP21      -0.2437
@<TRIPOS>BOND
     1    40    41   ar
     2    40    39   ar
     3    41    42   ar
     4    39    38    1
     5    39    44   ar
     6    42    43   ar
     7    38    37    1
     8    43    44   ar
     9    44    36    1
    10    37    36    1
    11    36    35    1
    12    47    45   ar
    13     5     4    1
    14    35    34    1
    15    45    34    1
    16    45    46   ar
    17    34    33    1
    18     8     7    2
    19     4     6    1
    20     4     3    1
    21     2     3    1
    22     2     1    1
    23     2     7    1
    24     7     9   am
    25    33    31   am
    26    32    31    2
    27    31    26    1
    28     9    10    1
    29    10    11    1
    30    10    15    1
    31    26    27    1
    32    26    25    1
    33    11    12    1
    34    13    12   ar
    35    27    29    1
    36    27    28    1
    37    29    30    1
    38    16    15    2
    39    15    17   am
    40    12    14   ar
    41    25    23   am
    42    17    18    1
    43    23    24    2
    44    23    18    1
    45    18    19    1
    46    19    21    1
    47    19    20    1
    48    21    22    1
