@<TRIPOS>MOLECULE
../ET1/ET1_17-21_50CONFORMERS_NOBACKBONE.pdb
 26 23 0 0 0
SMALL
GASTEIGER

@<TRIPOS>ATOM
      1  CB        -5.5630   -1.7920   -0.2730 C.3    17  LEU17       0.0000
      2  CG        -6.8350   -2.7460   -0.0070 C.3    17  LEU17       0.0000
      3  CD1       -7.2560   -3.4860   -1.2910 C.3    17  LEU17       0.0000
      4  CD2       -6.3160   -3.7970    1.0040 C.3    17  LEU17       0.0000
      5  CB        -8.9840    1.2240    1.3410 C.3    18  ASP18       0.1258
      6  CG       -10.1930    2.0630    1.6540 C.2    18  ASP18       0.3654
      7  OD1      -10.1500    3.2400    2.0200 O.co2  18  ASP18      -0.2456
      8  OD2      -11.3060    1.5130    1.6110 O.co2  18  ASP18      -0.2456
      9  CB        -5.3570    4.4930    3.2940 C.3    19  ILE19       0.0000
     10  CG2       -4.4780    5.6870    3.7490 C.3    19  ILE19       0.0000
     11  CG1       -6.3190    4.1150    4.4900 C.3    19  ILE19       0.0000
     12  CD1       -7.8090    4.6270    4.5050 C.3    19  ILE19       0.0000
     13  CB        -2.4600    4.7370   -1.1830 C.3    20  ILE20       0.0000
     14  CG2       -1.7960    4.8610   -2.5930 C.3    20  ILE20       0.0000
     15  CG1       -1.8210    5.6110   -0.1150 C.3    20  ILE20       0.0000
     16  CD1       -0.4350    5.1380    0.2510 C.3    20  ILE20       0.0000
     17  CB        -7.3890    4.1340   -4.2790 C.3    21  TRP21       0.0066
     18  CG        -7.9650    3.2290   -5.3810 C.3    21  TRP21       0.0452
     19  CD1       -8.6520    3.7260   -6.4880 C.3    21  TRP21       0.1165
     20  NE1       -8.9820    2.6610   -7.3480 N.pl3  21  TRP21      -0.2376
     21  CE2       -8.3360    1.4850   -6.9200 C.ar   21  TRP21       0.0614
     22  CZ2       -8.3690    0.1720   -7.3900 C.ar   21  TRP21       0.0158
     23  CH2       -7.7830   -0.8370   -6.5720 C.ar   21  TRP21       0.0013
     24  CZ3       -7.1480   -0.5410   -5.3610 C.ar   21  TRP21      -0.0002
     25  CE3       -7.0900    0.8060   -4.9390 C.ar   21  TRP21      -0.0030
     26  CD2       -7.7610    1.8160   -5.6430 C.ar   21  TRP21      -0.0059
@<TRIPOS>BOND
     1    22    23   ar
     2    22    21   ar
     3    23    24   ar
     4    21    20    1
     5    21    26   ar
     6    24    25   ar
     7    20    19    1
     8    25    26   ar
     9    26    18    1
    10    19    18    1
    11    18    17    1
    12     3     2    1
    13     2     4    1
    14     2     1    1
    15     5     6    1
    16     7     6   ar
    17    13    15    1
    18    13    14    1
    19    15    16    1
    20     6     8   ar
    21     9    11    1
    22     9    10    1
    23    11    12    1
@<TRIPOS>MOLECULE
123882
 66 71 0 0 0
SMALL
GASTEIGER

@<TRIPOS>ATOM
      1 S          -6.2364    9.4499    0.4261 S.2     3  UNK33      -0.0993
      2 O          -8.6976    0.2548    4.9968 O.2     1  UNK11      -0.2755
      3 O          -2.6470    3.2337   -3.4359 O.2     4  LEU44      -0.2738
      4 O          -8.2820    2.4913    2.1370 O.2     1  UNK11      -0.2737
      5 O          -5.5140    2.2626   -0.6413 O.2     5  TRP55      -0.2738
      6 O          -7.4237   -0.7788    0.2343 O.2     6  ASP66      -0.2738
      7 O          -4.5620    7.1223   -1.6894 O.2     3  UNK33      -0.2734
      8 O          -4.5169    4.4069    1.8005 O.2     2  ASP22      -0.2737
      9 OD1        -3.4286   -1.5656   -2.5150 O.co2   6  ASP66      -0.5497
     10 OD2        -2.5702   -2.6011   -0.6622 O.co2   6  ASP66      -0.5497
     11 OD1        -7.2645    3.9201    6.0177 O.co2   2  ASP22      -0.5497
     12 OD2        -6.6385    6.0931    6.3031 O.co2   2  ASP22      -0.5497
     13 N          -6.9716    0.2511    6.5070 N.am    1  UNK11      -0.2984
     14 N          -5.8066    0.9240    9.1509 N.pl3   1  UNK11      -0.3269
     15 N          -5.9874    0.2363    1.7209 N.am    1  UNK11      -0.3020
     16 N          -4.7904    3.6359   -2.7276 N.am    5  TRP55      -0.3022
     17 N          -4.0456    5.1659   -0.6725 N.am    4  LEU44      -0.3022
     18 N          -5.3499    0.2426   -1.6971 N.am    6  ASP66      -0.3021
     19 N          -6.3266    2.8173    3.2791 N.am    2  ASP22      -0.3021
     20 N          -6.3224    5.6999    1.2676 N.am    3  UNK33      -0.2984
     21 NE1        -8.5680   -0.6443   -4.1646 N.ar    5  TRP55      -0.3604
     22 C          -5.5821   -0.0502    6.8622 C.3     1  UNK11       0.0304
     23 C          -7.8040    0.7909    7.5894 C.3     1  UNK11       0.0304
     24 C          -5.4035   -0.2663    8.3747 C.3     1  UNK11       0.0280
     25 C          -6.9922    1.6541    8.5790 C.3     1  UNK11       0.0280
     26 C          -7.4884    0.2092    5.2204 C.2     1  UNK11       0.2179
     27 C          -6.4851    0.0077    4.1012 C.3     1  UNK11       0.0510
     28 C          -7.0044    0.5019    2.7487 C.3     1  UNK11       0.1076
     29 CA         -2.9513    4.8101   -1.5826 C.3     4  LEU44       0.0997
     30 CB         -1.7669    4.2112   -0.7950 C.3     4  LEU44      -0.0236
     31 CA         -5.3583    2.3183   -3.0670 C.3     5  TRP55       0.1034
     32 C          -4.8121    1.8317    9.5715 C.ar    1  UNK11       0.0298
     33 CG         -0.8856    5.2290   -0.0336 C.3     4  LEU44      -0.0446
     34 CB         -6.7526    2.5176   -3.6730 C.3     5  TRP55       0.0013
     35 C          -3.4208    3.8000   -2.6656 C.2     4  LEU44       0.2340
     36 CA         -5.0879   -0.4667   -0.4466 C.3     6  ASP66       0.1045
     37 C          -7.3049    2.0196    2.7180 C.2     1  UNK11       0.2344
     38 CG         -7.4387    1.2802   -4.1636 C.ar    5  TRP55      -0.0201
     39 C          -5.4141    1.6141   -1.6892 C.2     5  TRP55       0.2343
     40 C          -6.3029   -0.3542    0.5091 C.2     6  ASP66       0.2343
     41 CA         -6.4393    4.2697    3.2857 C.3     2  ASP22       0.1045
     42 CD2        -1.6093    5.9716    1.0888 C.3     4  LEU44      -0.0626
     43 CD1         0.3281    4.5047    0.5616 C.3     4  LEU44      -0.0626
     44 C          -5.5894    6.7265    0.5248 C.3     3  UNK33       0.1311
     45 C          -5.1202    2.7735   10.5692 C.ar    1  UNK11      -0.0407
     46 C          -3.5191    1.8806    9.0293 C.ar    1  UNK11      -0.0407
     47 CD2        -7.6425    0.8618   -5.5213 C.ar    5  TRP55       0.0029
     48 C          -4.7512    6.3449   -0.7505 C.2     3  UNK33       0.2390
     49 CB         -4.8283   -1.9501   -0.6740 C.3     6  ASP66       0.0138
     50 CD1        -8.0647    0.3426   -3.3661 C.ar    5  TRP55       0.0060
     51 CE2        -8.3641   -0.3342   -5.4878 C.ar    5  TRP55       0.0467
     52 C          -5.6694    4.7694    2.0455 C.2     2  ASP22       0.2345
     53 CB         -5.7524    4.9040    4.4907 C.3     2  ASP22       0.0138
     54 C          -4.1932    3.7333   10.9889 C.ar    1  UNK11      -0.0600
     55 C          -2.5867    2.8400    9.4436 C.ar    1  UNK11      -0.0600
     56 C          -6.5907    7.7946    0.1284 C.ar    3  UNK33       0.0189
     57 CE3        -7.2923    1.3912   -6.7819 C.ar    5  TRP55      -0.0523
     58 C          -2.9251    3.7689   10.4212 C.ar    1  UNK11      -0.0616
     59 CZ2        -8.7549   -1.0219   -6.6438 C.ar    5  TRP55      -0.0378
     60 CG         -3.4750   -2.0518   -1.3475 C.2     6  ASP66       0.0440
     61 CZ3        -7.6807    0.7191   -7.9489 C.ar    5  TRP55      -0.0611
     62 C          -7.8235    7.6506   -0.4855 C.ar    3  UNK33      -0.0493
     63 CH2        -8.4031   -0.4694   -7.8779 C.ar    5  TRP55      -0.0598
     64 CG         -6.6488    4.9753    5.7130 C.2     2  ASP22       0.0440
     65 C          -8.4664    8.9007   -0.7178 C.ar    3  UNK33      -0.0544
     66 C          -7.7044    9.9608   -0.2828 C.ar    3  UNK33      -0.0240
@<TRIPOS>BOND
     1     1    56   ar
     2     1    66   ar
     3     2    26    2
     4     3    35    2
     5     4    37    2
     6     5    39    2
     7     6    40    2
     8     7    48    2
     9     8    52    2
    10     9    60   ar
    11    10    60   ar
    12    11    64   ar
    13    12    64   ar
    14    13    22    1
    15    13    23    1
    16    14    24    1
    17    14    25    1
    18    14    32    1
    19    15    28    1
    20    15    40   am
    21    16    35   am
    22    16    31    1
    23    17    48   am
    24    17    29    1
    25    18    39   am
    26    18    36    1
    27    19    37   am
    28    19    41    1
    29    20    52   am
    30    20    44    1
    31    21    50   ar
    32    21    51   ar
    33    22    24    1
    34    23    25    1
    35    26    27    1
    36    26    13   am
    37    28    37    1
    38    28    27    1
    39    29    35    1
    40    29    30    1
    41    30    33    1
    42    31    39    1
    43    31    34    1
    44    32    45   ar
    45    32    46   ar
    46    33    43    1
    47    33    42    1
    48    34    38    1
    49    36    40    1
    50    36    49    1
    51    38    47   ar
    52    38    50   ar
    53    41    52    1
    54    41    53    1
    55    44    48    1
    56    44    56    1
    57    45    54   ar
    58    46    55   ar
    59    47    57   ar
    60    47    51   ar
    61    49    60    1
    62    51    59   ar
    63    53    64    1
    64    54    58   ar
    65    55    58   ar
    66    56    62   ar
    67    57    61   ar
    68    59    63   ar
    69    61    63   ar
    70    62    65   ar
    71    65    66   ar
@<TRIPOS>MOLECULE
../ET1/ET1_17-21_50CONFORMERS.pdb
 47 48 0 0 0
SMALL
GASTEIGER

@<TRIPOS>ATOM
      1  N         -4.6220    0.0550   -1.4400 N.3    17  LEU17      -0.1231
      2  CA        -5.7840   -0.7840   -1.4410 C.3    17  LEU17       0.1693
      3  CB        -5.5630   -1.7920   -0.2730 C.3    17  LEU17       0.0284
      4  CG        -6.8350   -2.7460   -0.0070 C.3    17  LEU17       0.0019
      5  CD1       -7.2560   -3.4860   -1.2910 C.3    17  LEU17       0.0001
      6  CD2       -6.3160   -3.7970    1.0040 C.3    17  LEU17       0.0001
      7  C         -7.0600    0.0240   -1.2480 C.2    17  LEU17       0.2592
      8  O         -7.9960   -0.2250   -2.0040 O.2    17  LEU17      -0.2718
      9  N         -7.1190    0.9520   -0.2900 N.am   18  ASP18      -0.1960
     10  CA        -8.1990    1.8400    0.1110 C.3    18  ASP18       0.1840
     11  CB        -8.9840    1.2240    1.3410 C.3    18  ASP18       0.1450
     12  CG       -10.1930    2.0630    1.6540 C.2    18  ASP18       0.3671
     13  OD1      -10.1500    3.2400    2.0200 O.co2  18  ASP18      -0.2456
     14  OD2      -11.3060    1.5130    1.6110 O.co2  18  ASP18      -0.2456
     15  C         -7.7000    3.1970    0.4870 C.2    18  ASP18       0.2622
     16  O         -8.0360    4.2400   -0.1950 O.2    18  ASP18      -0.2715
     17  N         -6.7900    3.3090    1.5090 N.am   19  ILE19      -0.1963
     18  CA        -6.2130    4.6300    1.9640 C.3    19  ILE19       0.1727
     19  CB        -5.3570    4.4930    3.2940 C.3    19  ILE19       0.0290
     20  CG2       -4.4780    5.6870    3.7490 C.3    19  ILE19       0.0023
     21  CG1       -6.3190    4.1150    4.4900 C.3    19  ILE19       0.0022
     22  CD1       -7.8090    4.6270    4.5050 C.3    19  ILE19       0.0001
     23  C         -5.3500    5.2750    0.8610 C.2    19  ILE19       0.2616
     24  O         -5.2360    6.5270    0.8080 O.2    19  ILE19      -0.2715
     25  N         -4.6430    4.4860    0.0450 N.am   20  ILE20      -0.1963
     26  CA        -4.0440    4.9650   -1.1840 C.3    20  ILE20       0.1727
     27  CB        -2.4600    4.7370   -1.1830 C.3    20  ILE20       0.0290
     28  CG2       -1.7960    4.8610   -2.5930 C.3    20  ILE20       0.0023
     29  CG1       -1.8210    5.6110   -0.1150 C.3    20  ILE20       0.0022
     30  CD1       -0.4350    5.1380    0.2510 C.3    20  ILE20       0.0001
     31  C         -4.7000    4.1960   -2.3510 C.2    20  ILE20       0.2617
     32  O         -4.7860    2.9690   -2.3310 O.2    20  ILE20      -0.2715
     33  N         -5.2380    4.9560   -3.3030 N.am   21  TRP21      -0.1941
     34  CA        -5.9570    4.6050   -4.5700 C.3    21  TRP21       0.1982
     35  CB        -7.3890    4.1340   -4.2790 C.3    21  TRP21       0.0394
     36  CG        -7.9650    3.2290   -5.3810 C.3    21  TRP21       0.0475
     37  CD1       -8.6520    3.7260   -6.4880 C.3    21  TRP21       0.1166
     38  NE1       -8.9820    2.6610   -7.3480 N.pl3  21  TRP21      -0.2376
     39  CE2       -8.3360    1.4850   -6.9200 C.ar   21  TRP21       0.0614
     40  CZ2       -8.3690    0.1720   -7.3900 C.ar   21  TRP21       0.0158
     41  CH2       -7.7830   -0.8370   -6.5720 C.ar   21  TRP21       0.0013
     42  CZ3       -7.1480   -0.5410   -5.3610 C.ar   21  TRP21      -0.0002
     43  CE3       -7.0900    0.8060   -4.9390 C.ar   21  TRP21      -0.0030
     44  CD2       -7.7610    1.8160   -5.6430 C.ar   21  TRP21      -0.0059
     45  C         -5.9130    5.8090   -5.5310 C.2    21  TRP21       0.3842
     46  O         -5.9470    5.5180   -6.7550 O.co2  21  TRP21      -0.2437
     47  OXT       -5.7930    6.9700   -5.0700 O.co2  21  TRP21      -0.2437
@<TRIPOS>BOND
     1    40    41   ar
     2    40    39   ar
     3    41    42   ar
     4    39    38    1
     5    39    44   ar
     6    42    43   ar
     7    38    37    1
     8    43    44   ar
     9    44    36    1
    10    37    36    1
    11    36    35    1
    12    47    45   ar
    13     5     4    1
    14    35    34    1
    15    45    34    1
    16    45    46   ar
    17    34    33    1
    18     8     7    2
    19     4     6    1
    20     4     3    1
    21     2     3    1
    22     2     1    1
    23     2     7    1
    24     7     9   am
    25    33    31   am
    26    32    31    2
    27    31    26    1
    28     9    10    1
    29    10    11    1
    30    10    15    1
    31    26    27    1
    32    26    25    1
    33    11    12    1
    34    13    12   ar
    35    27    29    1
    36    27    28    1
    37    29    30    1
    38    16    15    2
    39    15    17   am
    40    12    14   ar
    41    25    23   am
    42    17    18    1
    43    23    24    2
    44    23    18    1
    45    18    19    1
    46    19    21    1
    47    19    20    1
    48    21    22    1
