@<TRIPOS>MOLECULE
../ET1/ET1_17-21_50CONFORMERS_NOBACKBONE.pdb
 26 23 0 0 0
SMALL
GASTEIGER

@<TRIPOS>ATOM
      1  CB        -6.4370   -1.5800   -0.4890 C.3    17  LEU17       0.0000
      2  CG        -7.7290   -2.3240   -0.5840 C.3    17  LEU17       0.0000
      3  CD1       -7.5190   -3.3320   -1.7540 C.3    17  LEU17       0.0000
      4  CD2       -8.1240   -3.1540    0.6640 C.3    17  LEU17       0.0000
      5  CB        -9.6890    1.3370    0.5940 C.3    18  ASP18       0.1258
      6  CG       -11.0150    2.0030    0.9100 C.2    18  ASP18       0.3654
      7  OD1      -11.6810    2.5280   -0.0420 O.co2  18  ASP18      -0.2456
      8  OD2      -11.3830    1.9480    2.1450 O.co2  18  ASP18      -0.2456
      9  CB        -5.7270    4.5050    2.6200 C.3    19  ILE19       0.0000
     10  CG2       -4.9760    5.7330    3.0740 C.3    19  ILE19       0.0000
     11  CG1       -6.3620    3.8720    3.8200 C.3    19  ILE19       0.0000
     12  CD1       -5.3830    3.4190    4.9140 C.3    19  ILE19       0.0000
     13  CB        -2.8510    5.7340   -1.3230 C.3    20  ILE20       0.0000
     14  CG2       -2.6770    7.0390   -0.5840 C.3    20  ILE20       0.0000
     15  CG1       -2.0230    4.6170   -0.7130 C.3    20  ILE20       0.0000
     16  CD1       -0.5320    4.6370   -1.0720 C.3    20  ILE20       0.0000
     17  CB        -6.6140    3.3930   -4.9190 C.3    21  TRP21       0.0066
     18  CG        -7.1090    2.6790   -6.1830 C.3    21  TRP21       0.0452
     19  CD1       -6.9010    1.3600   -6.4540 C.3    21  TRP21       0.1165
     20  NE1       -7.6490    0.9550   -7.5090 N.pl3  21  TRP21      -0.2376
     21  CE2       -8.5210    1.9570   -7.8340 C.ar   21  TRP21       0.0614
     22  CZ2       -9.5440    1.9900   -8.7760 C.ar   21  TRP21       0.0158
     23  CH2      -10.2610    3.1960   -8.9890 C.ar   21  TRP21       0.0013
     24  CZ3       -9.9540    4.3430   -8.2600 C.ar   21  TRP21      -0.0002
     25  CE3       -8.8810    4.2500   -7.3270 C.ar   21  TRP21      -0.0030
     26  CD2       -8.1390    3.0640   -7.1040 C.ar   21  TRP21      -0.0059
@<TRIPOS>BOND
     1    22    23   ar
     2    22    21   ar
     3    23    24   ar
     4    21    20    1
     5    21    26   ar
     6    24    25   ar
     7    20    19    1
     8    25    26   ar
     9    26    18    1
    10    19    18    1
    11    18    17    1
    12     3     2    1
    13     2     4    1
    14     2     1    1
    15     5     6    1
    16     7     6   ar
    17    13    15    1
    18    13    14    1
    19    15    16    1
    20     6     8   ar
    21     9    11    1
    22     9    10    1
    23    11    12    1
@<TRIPOS>MOLECULE
9911482
 30 32 0 0 0
SMALL
GASTEIGER

@<TRIPOS>ATOM
      1 S          -7.2845    7.1572   -2.7915 S.O2    1  LIG11       0.0758
      2 S          -5.1319    7.0605   -6.4634 S.2     1  LIG11      -0.0902
      3 O          -7.5062    7.7016    0.7148 O.2     1  LIG11      -0.3377
      4 O          -8.4852    7.8706   -3.1669 O.2     1  LIG11      -0.1499
      5 O          -7.2196    5.7432   -2.5064 O.2     1  LIG11      -0.1499
      6 O          -8.7194    6.0940   -5.3561 O.2     1  LIG11      -0.2692
      7 O          -6.5121    1.1857   -7.4286 O.2     1  LIG11      -0.2923
      8 N          -7.3508    5.1206   -6.9194 N.am    1  LIG11      -0.2802
      9 N          -6.6127    8.0806   -1.5280 N.pl3   1  LIG11      -0.1831
     10 N          -7.2162    6.9484    1.8356 N.ar    1  LIG11      -0.0810
     11 C          -8.3396    4.2700   -7.4673 C.ar    1  LIG11       0.0471
     12 C          -6.2312    7.3294   -4.1637 C.ar    1  LIG11       0.1277
     13 C          -9.4789    4.8208   -8.0965 C.ar    1  LIG11      -0.0283
     14 C          -8.1482    2.8734   -7.4961 C.ar    1  LIG11       0.0388
     15 C          -6.4550    6.7542   -5.4040 C.ar    1  LIG11       0.1007
     16 C         -10.2393    2.5785   -8.7176 C.ar    1  LIG11      -0.0494
     17 C         -10.4253    3.9617   -8.6901 C.ar    1  LIG11      -0.0541
     18 C          -9.0970    2.0431   -8.1188 C.ar    1  LIG11      -0.0466
     19 C          -7.6141    6.0032   -5.8716 C.2     1  LIG11       0.2568
     20 C          -6.6234    7.4080   -0.2748 C.ar    1  LIG11       0.2399
     21 C          -4.9823    8.0252   -4.0958 C.ar    1  LIG11      -0.0273
     22 C          -5.6990    6.4967    0.1868 C.ar    1  LIG11       0.0350
     23 C          -9.7319    6.3000   -8.2461 C.3     1  LIG11      -0.0379
     24 C          -6.9969    2.1664   -6.8649 C.2     1  LIG11       0.1619
     25 C          -6.1336    6.2298    1.5167 C.ar    1  LIG11       0.0854
     26 C          -4.2900    7.9587   -5.2828 C.ar    1  LIG11      -0.0217
     27 C         -11.2512    1.6758   -9.3592 C.3     1  LIG11      -0.0397
     28 C          -4.5092    5.9400   -0.4930 C.3     1  LIG11      -0.0330
     29 C          -5.5193    5.3255    2.5176 C.3     1  LIG11      -0.0188
     30 C          -6.4492    2.6454   -5.5452 C.3     1  LIG11      -0.0013
@<TRIPOS>BOND
     1     1     4    2
     2     1     5    2
     3     1     9    1
     4     1    12    1
     5     2    15   ar
     6     2    26   ar
     7     3    10   ar
     8     3    20   ar
     9     6    19    2
    10     7    24    2
    11     8    11    1
    12     8    19   am
    13     9    20    1
    14    10    25   ar
    15    11    13   ar
    16    11    14   ar
    17    12    15   ar
    18    12    21   ar
    19    13    17   ar
    20    13    23    1
    21    14    18   ar
    22    14    24    1
    23    15    19    1
    24    16    17   ar
    25    16    18   ar
    26    16    27    1
    27    20    22   ar
    28    21    26   ar
    29    22    25   ar
    30    22    28    1
    31    24    30    1
    32    25    29    1
@<TRIPOS>MOLECULE
../ET1/ET1_17-21_50CONFORMERS.pdb
 47 48 0 0 0
SMALL
GASTEIGER

@<TRIPOS>ATOM
      1  N         -4.8640    0.0950   -1.5660 N.3    17  LEU17      -0.1231
      2  CA        -6.2110   -0.4950   -1.6480 C.3    17  LEU17       0.1693
      3  CB        -6.4370   -1.5800   -0.4890 C.3    17  LEU17       0.0284
      4  CG        -7.7290   -2.3240   -0.5840 C.3    17  LEU17       0.0019
      5  CD1       -7.5190   -3.3320   -1.7540 C.3    17  LEU17       0.0001
      6  CD2       -8.1240   -3.1540    0.6640 C.3    17  LEU17       0.0001
      7  C         -7.3380    0.5140   -1.6640 C.2    17  LEU17       0.2592
      8  O         -8.1150    0.5180   -2.6330 O.2    17  LEU17      -0.2718
      9  N         -7.5490    1.2830   -0.5870 N.am   18  ASP18      -0.1960
     10  CA        -8.7710    2.1160   -0.4280 C.3    18  ASP18       0.1840
     11  CB        -9.6890    1.3370    0.5940 C.3    18  ASP18       0.1450
     12  CG       -11.0150    2.0030    0.9100 C.2    18  ASP18       0.3671
     13  OD1      -11.6810    2.5280   -0.0420 O.co2  18  ASP18      -0.2456
     14  OD2      -11.3830    1.9480    2.1450 O.co2  18  ASP18      -0.2456
     15  C         -8.4150    3.5200    0.1100 C.2    18  ASP18       0.2622
     16  O         -8.9730    4.5660   -0.2410 O.2    18  ASP18      -0.2715
     17  N         -7.3620    3.5650    0.9550 N.am   19  ILE19      -0.1963
     18  CA        -6.6980    4.7620    1.4650 C.3    19  ILE19       0.1727
     19  CB        -5.7270    4.5050    2.6200 C.3    19  ILE19       0.0290
     20  CG2       -4.9760    5.7330    3.0740 C.3    19  ILE19       0.0023
     21  CG1       -6.3620    3.8720    3.8200 C.3    19  ILE19       0.0022
     22  CD1       -5.3830    3.4190    4.9140 C.3    19  ILE19       0.0001
     23  C         -5.8840    5.5580    0.3470 C.2    19  ILE19       0.2616
     24  O         -6.1000    6.7600    0.1560 O.2    19  ILE19      -0.2715
     25  N         -4.9860    4.9120   -0.3880 N.am   20  ILE20      -0.1963
     26  CA        -4.3890    5.4830   -1.5810 C.3    20  ILE20       0.1727
     27  CB        -2.8510    5.7340   -1.3230 C.3    20  ILE20       0.0290
     28  CG2       -2.6770    7.0390   -0.5840 C.3    20  ILE20       0.0023
     29  CG1       -2.0230    4.6170   -0.7130 C.3    20  ILE20       0.0022
     30  CD1       -0.5320    4.6370   -1.0720 C.3    20  ILE20       0.0001
     31  C         -4.5570    4.5110   -2.7290 C.2    20  ILE20       0.2617
     32  O         -4.3120    3.2810   -2.6410 O.2    20  ILE20      -0.2715
     33  N         -5.0390    4.9920   -3.8660 N.am   21  TRP21      -0.1941
     34  CA        -5.3540    4.2160   -5.0990 C.3    21  TRP21       0.1982
     35  CB        -6.6140    3.3930   -4.9190 C.3    21  TRP21       0.0394
     36  CG        -7.1090    2.6790   -6.1830 C.3    21  TRP21       0.0475
     37  CD1       -6.9010    1.3600   -6.4540 C.3    21  TRP21       0.1166
     38  NE1       -7.6490    0.9550   -7.5090 N.pl3  21  TRP21      -0.2376
     39  CE2       -8.5210    1.9570   -7.8340 C.ar   21  TRP21       0.0614
     40  CZ2       -9.5440    1.9900   -8.7760 C.ar   21  TRP21       0.0158
     41  CH2      -10.2610    3.1960   -8.9890 C.ar   21  TRP21       0.0013
     42  CZ3       -9.9540    4.3430   -8.2600 C.ar   21  TRP21      -0.0002
     43  CE3       -8.8810    4.2500   -7.3270 C.ar   21  TRP21      -0.0030
     44  CD2       -8.1390    3.0640   -7.1040 C.ar   21  TRP21      -0.0059
     45  C         -5.3760    5.0420   -6.4070 C.2    21  TRP21       0.3842
     46  O         -5.8420    6.2330   -6.3310 O.co2  21  TRP21      -0.2437
     47  OXT       -4.7220    4.5940   -7.3310 O.co2  21  TRP21      -0.2437
@<TRIPOS>BOND
     1    40    41   ar
     2    40    39   ar
     3    41    42   ar
     4    39    38    1
     5    39    44   ar
     6    42    43   ar
     7    38    37    1
     8    43    44   ar
     9    44    36    1
    10    37    36    1
    11    36    35    1
    12    47    45   ar
    13     5     4    1
    14    35    34    1
    15    45    34    1
    16    45    46   ar
    17    34    33    1
    18     8     7    2
    19     4     6    1
    20     4     3    1
    21     2     3    1
    22     2     1    1
    23     2     7    1
    24     7     9   am
    25    33    31   am
    26    32    31    2
    27    31    26    1
    28     9    10    1
    29    10    11    1
    30    10    15    1
    31    26    27    1
    32    26    25    1
    33    11    12    1
    34    13    12   ar
    35    27    29    1
    36    27    28    1
    37    29    30    1
    38    16    15    2
    39    15    17   am
    40    12    14   ar
    41    25    23   am
    42    17    18    1
    43    23    24    2
    44    23    18    1
    45    18    19    1
    46    19    21    1
    47    19    20    1
    48    21    22    1
