@<TRIPOS>MOLECULE
../ET1/ET1_17-21_50CONFORMERS_NOBACKBONE.pdb
 26 23 0 0 0
SMALL
GASTEIGER

@<TRIPOS>ATOM
      1  CB        -6.1060   -1.8910   -0.6040 C.3    17  LEU17       0.0000
      2  CG        -7.3260   -2.7700   -0.5110 C.3    17  LEU17       0.0000
      3  CD1       -7.5330   -3.5860   -1.8080 C.3    17  LEU17       0.0000
      4  CD2       -7.1750   -3.7620    0.6380 C.3    17  LEU17       0.0000
      5  CB        -9.6350    1.1900    0.6620 C.3    18  ASP18       0.1258
      6  CG       -10.7540    2.0760    1.0750 C.2    18  ASP18       0.3654
      7  OD1      -10.7090    2.5980    2.1810 O.co2  18  ASP18      -0.2456
      8  OD2      -11.7750    2.1680    0.3490 O.co2  18  ASP18      -0.2456
      9  CB        -5.6060    4.1530    3.1840 C.3    19  ILE19       0.0000
     10  CG2       -5.0710    5.4630    3.7780 C.3    19  ILE19       0.0000
     11  CG1       -6.3130    3.3110    4.2570 C.3    19  ILE19       0.0000
     12  CD1       -7.4260    3.9890    5.0080 C.3    19  ILE19       0.0000
     13  CB        -2.4570    5.3180   -0.3440 C.3    20  ILE20       0.0000
     14  CG2       -2.2540    6.0130    0.9630 C.3    20  ILE20       0.0000
     15  CG1       -1.6850    3.9000   -0.3880 C.3    20  ILE20       0.0000
     16  CD1       -0.1170    4.0540   -0.3600 C.3    20  ILE20       0.0000
     17  CB        -5.5920    5.9330   -5.0080 C.3    21  TRP21       0.0066
     18  CG        -6.7500    5.3280   -4.2680 C.3    21  TRP21       0.0452
     19  CD1       -7.2600    5.6560   -3.0690 C.3    21  TRP21       0.1165
     20  NE1       -8.2550    4.7710   -2.7510 N.pl3  21  TRP21      -0.2376
     21  CE2       -8.5230    3.9140   -3.8170 C.ar   21  TRP21       0.0614
     22  CZ2       -9.4410    2.8940   -4.0290 C.ar   21  TRP21       0.0158
     23  CH2       -9.4520    2.1750   -5.2310 C.ar   21  TRP21       0.0013
     24  CZ3       -8.7260    2.6660   -6.3270 C.ar   21  TRP21      -0.0002
     25  CE3       -7.8990    3.7620   -6.1480 C.ar   21  TRP21      -0.0030
     26  CD2       -7.6800    4.3580   -4.8730 C.ar   21  TRP21      -0.0059
@<TRIPOS>BOND
     1    22    23   ar
     2    22    21   ar
     3    23    24   ar
     4    21    20    1
     5    21    26   ar
     6    24    25   ar
     7    20    19    1
     8    25    26   ar
     9    26    18    1
    10    19    18    1
    11    18    17    1
    12     3     2    1
    13     2     4    1
    14     2     1    1
    15     5     6    1
    16     7     6   ar
    17    13    15    1
    18    13    14    1
    19    15    16    1
    20     6     8   ar
    21     9    11    1
    22     9    10    1
    23    11    12    1
@<TRIPOS>MOLECULE
*****
 39 42 0 0 0
SMALL
GASTEIGER

@<TRIPOS>ATOM
      1 C          -1.9584   -2.8254    1.4375 C.ar    1  LIG11       0.0483
      2 C          -2.5905   -3.9681    1.8706 C.ar    1  LIG11       0.0543
      3 C          -3.9590   -3.9792    1.7322 C.ar    1  LIG11       0.0483
      4 N          -4.6616   -2.9567    1.2007 N.ar    1  LIG11      -0.2022
      5 N          -2.6087   -1.7720    0.8989 N.ar    1  LIG11      -0.2022
      6 C         -12.0301   -2.2495   -2.3301 C.ar    1  LIG11      -0.0504
      7 C         -11.2591   -1.2669   -1.7095 C.ar    1  LIG11      -0.0583
      8 C         -10.1393   -0.7256   -2.3567 C.ar    1  LIG11      -0.0535
      9 C          -9.7316   -1.1608   -3.6328 C.ar    1  LIG11      -0.0094
     10 C         -10.5484   -2.1247   -4.2519 C.ar    1  LIG11      -0.0535
     11 C         -11.6863   -2.6476   -3.6220 C.ar    1  LIG11      -0.0583
     12 C          -8.8691    3.5881   -4.0333 C.ar    1  LIG11      -0.0561
     13 C          -9.6520    2.6154   -4.6589 C.ar    1  LIG11      -0.0348
     14 C          -9.3517    2.2286   -5.9621 C.ar    1  LIG11       0.1086
     15 C          -8.3183    2.8466   -6.6649 C.ar    1  LIG11      -0.0348
     16 C          -7.5378    3.8180   -6.0290 C.ar    1  LIG11      -0.0561
     17 C          -6.9240    5.2441   -3.9549 C.3     1  LIG11       0.0132
     18 C          -7.7843    4.1984   -4.6968 C.ar    1  LIG11      -0.0394
     19 C          -6.3085    4.5850   -2.6980 C.3     1  LIG11      -0.0537
     20 C          -7.8028    6.4456   -3.5094 C.3     1  LIG11       0.0533
     21 C          -5.7484    5.7928   -4.7968 C.3     1  LIG11      -0.0537
     22 O          -8.3236    7.1703   -4.6212 O.3     1  LIG11      -0.3942
     23 S         -10.2882    0.9201   -6.7232 S.O2    1  LIG11       0.0735
     24 O         -11.4793    0.7170   -5.9293 O.2     1  LIG11      -0.1499
     25 O         -10.3885    1.2212   -8.1373 O.2     1  LIG11      -0.1499
     26 N          -9.3382   -0.4764   -6.6141 N.pl3   1  LIG11      -0.1988
     27 C          -8.4770   -0.6803   -4.2731 C.ar    1  LIG11       0.0847
     28 C          -7.2892   -0.4442   -3.5751 C.ar    1  LIG11       0.2276
     29 N          -6.1171   -0.0906   -4.1436 N.ar    1  LIG11      -0.2008
     30 C          -6.1048    0.0260   -5.4674 C.ar    1  LIG11       0.1219
     31 N          -7.1557   -0.1532   -6.2617 N.ar    1  LIG11      -0.2186
     32 C          -8.3056   -0.4777   -5.6411 C.ar    1  LIG11       0.1524
     33 C         -13.2335   -2.8263   -1.6463 C.3     1  LIG11      -0.0397
     34 O          -7.2808   -0.6543   -2.2113 O.3     1  LIG11      -0.4724
     35 C          -6.1377   -0.1837   -1.4934 C.3     1  LIG11       0.1252
     36 C          -5.7852   -1.2245   -0.4379 C.3     1  LIG11       0.1267
     37 O          -4.5810   -0.8266    0.2142 O.3     1  LIG11      -0.4590
     38 C          -3.9397   -1.8976    0.7929 C.ar    1  LIG11       0.3180
     39 BR         -1.6489   -5.4193    2.5973 Br      1  LIG11      -0.0472
@<TRIPOS>BOND
     1     1     2   ar
     2     2     3   ar
     3     2    39    1
     4     3     4   ar
     5     4    38   ar
     6     5     1   ar
     7     6     7   ar
     8     6    33    1
     9     7     8   ar
    10     8     9   ar
    11     9    10   ar
    12    10    11   ar
    13    11     6   ar
    14    12    13   ar
    15    13    14   ar
    16    14    15   ar
    17    15    16   ar
    18    16    18   ar
    19    17    18    1
    20    17    21    1
    21    17    20    1
    22    17    19    1
    23    18    12   ar
    24    20    22    1
    25    23    26    1
    26    23    25    2
    27    23    24    2
    28    23    14    1
    29    26    32    1
    30    27    28   ar
    31    27     9    1
    32    28    29   ar
    33    29    30   ar
    34    30    31   ar
    35    31    32   ar
    36    32    27   ar
    37    34    35    1
    38    34    28    1
    39    35    36    1
    40    36    37    1
    41    37    38    1
    42    38     5   ar
@<TRIPOS>MOLECULE
../ET1/ET1_17-21_50CONFORMERS.pdb
 47 48 0 0 0
SMALL
GASTEIGER

@<TRIPOS>ATOM
      1  N         -4.8600   -0.0130   -1.6420 N.3    17  LEU17      -0.1231
      2  CA        -6.1110   -0.7850   -1.7070 C.3    17  LEU17       0.1693
      3  CB        -6.1060   -1.8910   -0.6040 C.3    17  LEU17       0.0284
      4  CG        -7.3260   -2.7700   -0.5110 C.3    17  LEU17       0.0019
      5  CD1       -7.5330   -3.5860   -1.8080 C.3    17  LEU17       0.0001
      6  CD2       -7.1750   -3.7620    0.6380 C.3    17  LEU17       0.0001
      7  C         -7.3910    0.1230   -1.5920 C.2    17  LEU17       0.2592
      8  O         -8.2890    0.1400   -2.4470 O.2    17  LEU17      -0.2718
      9  N         -7.4630    1.0230   -0.5710 N.am   18  ASP18      -0.1960
     10  CA        -8.6060    1.9280   -0.1770 C.3    18  ASP18       0.1840
     11  CB        -9.6350    1.1900    0.6620 C.3    18  ASP18       0.1450
     12  CG       -10.7540    2.0760    1.0750 C.2    18  ASP18       0.3671
     13  OD1      -10.7090    2.5980    2.1810 O.co2  18  ASP18      -0.2456
     14  OD2      -11.7750    2.1680    0.3490 O.co2  18  ASP18      -0.2456
     15  C         -8.1270    3.2690    0.4310 C.2    18  ASP18       0.2622
     16  O         -8.4550    4.3680   -0.0320 O.2    18  ASP18      -0.2715
     17  N         -7.2680    3.2890    1.4350 N.am   19  ILE19      -0.1963
     18  CA        -6.6180    4.4780    2.0110 C.3    19  ILE19       0.1727
     19  CB        -5.6060    4.1530    3.1840 C.3    19  ILE19       0.0290
     20  CG2       -5.0710    5.4630    3.7780 C.3    19  ILE19       0.0023
     21  CG1       -6.3130    3.3110    4.2570 C.3    19  ILE19       0.0022
     22  CD1       -7.4260    3.9890    5.0080 C.3    19  ILE19       0.0001
     23  C         -5.8570    5.2320    0.9330 C.2    19  ILE19       0.2616
     24  O         -6.1630    6.4430    0.7480 O.2    19  ILE19      -0.2715
     25  N         -4.8930    4.6150    0.2110 N.am   20  ILE20      -0.1963
     26  CA        -4.0370    5.3340   -0.7450 C.3    20  ILE20       0.1727
     27  CB        -2.4570    5.3180   -0.3440 C.3    20  ILE20       0.0290
     28  CG2       -2.2540    6.0130    0.9630 C.3    20  ILE20       0.0023
     29  CG1       -1.6850    3.9000   -0.3880 C.3    20  ILE20       0.0022
     30  CD1       -0.1170    4.0540   -0.3600 C.3    20  ILE20       0.0001
     31  C         -4.2350    4.7430   -2.1630 C.2    20  ILE20       0.2617
     32  O         -4.5360    3.5640   -2.2730 O.2    20  ILE20      -0.2715
     33  N         -4.0240    5.5760   -3.2320 N.am   21  TRP21      -0.1941
     34  CA        -4.2060    5.3440   -4.6130 C.3    21  TRP21       0.1982
     35  CB        -5.5920    5.9330   -5.0080 C.3    21  TRP21       0.0394
     36  CG        -6.7500    5.3280   -4.2680 C.3    21  TRP21       0.0475
     37  CD1       -7.2600    5.6560   -3.0690 C.3    21  TRP21       0.1166
     38  NE1       -8.2550    4.7710   -2.7510 N.pl3  21  TRP21      -0.2376
     39  CE2       -8.5230    3.9140   -3.8170 C.ar   21  TRP21       0.0614
     40  CZ2       -9.4410    2.8940   -4.0290 C.ar   21  TRP21       0.0158
     41  CH2       -9.4520    2.1750   -5.2310 C.ar   21  TRP21       0.0013
     42  CZ3       -8.7260    2.6660   -6.3270 C.ar   21  TRP21      -0.0002
     43  CE3       -7.8990    3.7620   -6.1480 C.ar   21  TRP21      -0.0030
     44  CD2       -7.6800    4.3580   -4.8730 C.ar   21  TRP21      -0.0059
     45  C         -3.2090    5.9310   -5.5650 C.2    21  TRP21       0.3842
     46  O         -2.3720    6.7390   -5.0730 O.co2  21  TRP21      -0.2437
     47  OXT       -3.1210    5.4890   -6.7230 O.co2  21  TRP21      -0.2437
@<TRIPOS>BOND
     1    40    41   ar
     2    40    39   ar
     3    41    42   ar
     4    39    38    1
     5    39    44   ar
     6    42    43   ar
     7    38    37    1
     8    43    44   ar
     9    44    36    1
    10    37    36    1
    11    36    35    1
    12    47    45   ar
    13     5     4    1
    14    35    34    1
    15    45    34    1
    16    45    46   ar
    17    34    33    1
    18     8     7    2
    19     4     6    1
    20     4     3    1
    21     2     3    1
    22     2     1    1
    23     2     7    1
    24     7     9   am
    25    33    31   am
    26    32    31    2
    27    31    26    1
    28     9    10    1
    29    10    11    1
    30    10    15    1
    31    26    27    1
    32    26    25    1
    33    11    12    1
    34    13    12   ar
    35    27    29    1
    36    27    28    1
    37    29    30    1
    38    16    15    2
    39    15    17   am
    40    12    14   ar
    41    25    23   am
    42    17    18    1
    43    23    24    2
    44    23    18    1
    45    18    19    1
    46    19    21    1
    47    19    20    1
    48    21    22    1
