@<TRIPOS>MOLECULE
../ET1/ET1_17-21_50CONFORMERS_NOBACKBONE.pdb
 26 23 0 0 0
SMALL
GASTEIGER

@<TRIPOS>ATOM
      1  CB        -5.8780   -2.0210    0.4520 C.3    17  LEU17       0.0000
      2  CG        -6.9900   -3.1010    0.6230 C.3    17  LEU17       0.0000
      3  CD1       -6.7630   -4.2450   -0.4740 C.3    17  LEU17       0.0000
      4  CD2       -6.7750   -3.7750    1.9210 C.3    17  LEU17       0.0000
      5  CB        -9.0150    1.6120    1.5630 C.3    18  ASP18       0.1258
      6  CG        -9.9640    2.7160    1.9110 C.2    18  ASP18       0.3654
      7  OD1       -9.9710    3.1650    3.0820 O.co2  18  ASP18      -0.2456
      8  OD2      -10.7630    3.1150    1.0500 O.co2  18  ASP18      -0.2456
      9  CB        -4.8450    4.7280    2.6100 C.3    19  ILE19       0.0000
     10  CG2       -3.9210    5.9590    2.5900 C.3    19  ILE19       0.0000
     11  CG1       -5.6770    4.5630    3.9050 C.3    19  ILE19       0.0000
     12  CD1       -6.3760    5.8650    4.4140 C.3    19  ILE19       0.0000
     13  CB        -2.4910    5.2510   -2.0540 C.3    20  ILE20       0.0000
     14  CG2       -1.9600    5.9610   -0.8610 C.3    20  ILE20       0.0000
     15  CG1       -1.7310    3.9700   -2.3920 C.3    20  ILE20       0.0000
     16  CD1       -0.2300    4.2530   -2.7120 C.3    20  ILE20       0.0000
     17  CB        -6.1690    3.6680   -6.0990 C.3    21  TRP21       0.0066
     18  CG        -6.9060    4.9880   -6.2280 C.3    21  TRP21       0.0452
     19  CD1       -7.4050    5.7640   -5.2550 C.3    21  TRP21       0.1165
     20  NE1       -7.8560    6.8940   -5.7820 N.pl3  21  TRP21      -0.2376
     21  CE2       -7.6610    7.0170   -7.1640 C.ar   21  TRP21       0.0614
     22  CZ2       -7.9930    7.9650   -8.1240 C.ar   21  TRP21       0.0158
     23  CH2       -7.6550    7.7020   -9.4830 C.ar   21  TRP21       0.0013
     24  CZ3       -6.9780    6.4690   -9.8170 C.ar   21  TRP21      -0.0002
     25  CE3       -6.7360    5.5540   -8.7670 C.ar   21  TRP21      -0.0030
     26  CD2       -7.0160    5.7580   -7.4360 C.ar   21  TRP21      -0.0059
@<TRIPOS>BOND
     1    22    23   ar
     2    22    21   ar
     3    23    24   ar
     4    21    20    1
     5    21    26   ar
     6    24    25   ar
     7    20    19    1
     8    25    26   ar
     9    26    18    1
    10    19    18    1
    11    18    17    1
    12     3     2    1
    13     2     4    1
    14     2     1    1
    15     5     6    1
    16     7     6   ar
    17    13    15    1
    18    13    14    1
    19    15    16    1
    20     6     8   ar
    21     9    11    1
    22     9    10    1
    23    11    12    1
@<TRIPOS>MOLECULE
123882
 66 71 0 0 0
SMALL
GASTEIGER

@<TRIPOS>ATOM
      1 S          -3.6680    9.9209    0.4482 S.2     3  UNK33      -0.0993
      2 O          -9.5038   -0.9048    1.1070 O.2     1  UNK11      -0.2755
      3 O          -3.6638    4.0353   -5.4164 O.2     4  LEU44      -0.2738
      4 O          -8.8795    4.2052    0.8400 O.2     1  UNK11      -0.2737
      5 O          -6.6298    4.3328   -2.7620 O.2     5  TRP55      -0.2738
      6 O          -9.3468    2.4981   -2.1049 O.2     6  ASP66      -0.2738
      7 O          -3.6157    8.0200   -2.7338 O.2     3  UNK33      -0.2734
      8 O          -4.6922    4.5671   -0.2208 O.2     2  ASP22      -0.2737
      9 OD1        -6.7744    0.7149   -5.8700 O.co2   6  ASP66      -0.5497
     10 OD2        -6.2462   -1.1784   -4.6954 O.co2   6  ASP66      -0.5497
     11 OD1        -6.8934    3.9517    4.2335 O.co2   2  ASP22      -0.5497
     12 OD2        -4.7742    4.2688    5.0035 O.co2   2  ASP22      -0.5497
     13 N          -7.2853   -1.4712    1.2412 N.am    1  UNK11      -0.2984
     14 N          -5.4618   -3.4517    2.3333 N.pl3   1  UNK11      -0.3269
     15 N          -7.6916    1.5574   -0.8079 N.am    1  UNK11      -0.3020
     16 N          -5.1874    5.5421   -4.6045 N.am    5  TRP55      -0.3022
     17 N          -3.8248    5.8103   -2.2791 N.am    4  LEU44      -0.3022
     18 N          -7.3888    2.7584   -4.2425 N.am    6  ASP66      -0.3021
     19 N          -6.7380    3.4874    1.2365 N.am    2  ASP22      -0.3021
     20 N          -5.5698    6.6510    0.1181 N.am    3  UNK33      -0.2984
     21 NE1        -6.4193    8.7206   -7.4827 N.ar    5  TRP55      -0.3604
     22 C          -5.8770   -1.1370    1.4896 C.3     1  UNK11       0.0304
     23 C          -7.5626   -2.8983    1.0443 C.3     1  UNK11       0.0304
     24 C          -4.9407   -2.3599    1.4853 C.3     1  UNK11       0.0280
     25 C          -6.9077   -3.7566    2.1511 C.3     1  UNK11       0.0280
     26 C          -8.3325   -0.5579    1.2736 C.2     1  UNK11       0.2179
     27 C          -7.9997    0.8919    1.5782 C.3     1  UNK11       0.0510
     28 C          -8.3934    1.8431    0.4470 C.3     1  UNK11       0.1076
     29 CA         -3.0485    5.2898   -3.4049 C.3     4  LEU44       0.0997
     30 CB         -2.2038    4.0747   -2.9572 C.3     4  LEU44      -0.0236
     31 CA         -6.3820    4.8568   -5.1177 C.3     5  TRP55       0.1034
     32 C          -5.0022   -3.5860    3.6497 C.ar    1  UNK11       0.0298
     33 CG         -1.0690    4.2921   -1.9262 C.3     4  LEU44      -0.0446
     34 CB         -7.5099    5.8436   -5.4406 C.3     5  TRP55       0.0013
     35 C          -3.9902    4.8533   -4.5605 C.2     4  LEU44       0.2340
     36 CA         -7.3325    1.6900   -3.2379 C.3     6  ASP66       0.1045
     37 C          -8.0487    3.2952    0.8584 C.2     1  UNK11       0.2344
     38 CG         -7.1531    6.8575   -6.4939 C.ar    5  TRP55      -0.0201
     39 C          -6.8128    3.9673   -3.9283 C.2     5  TRP55       0.2343
     40 C          -8.2298    1.9964   -2.0131 C.2     6  ASP66       0.2343
     41 CA         -6.2293    4.7940    1.6303 C.3     2  ASP22       0.1045
     42 CD2        -0.0093    5.2745   -2.4195 C.3     4  LEU44      -0.0626
     43 CD1        -1.5392    4.6889   -0.5306 C.3     4  LEU44      -0.0626
     44 C          -4.4654    7.4061   -0.4846 C.3     3  UNK33       0.1311
     45 C          -4.4253   -2.5363    4.3796 C.ar    1  UNK11      -0.0407
     46 C          -5.1009   -4.8306    4.2939 C.ar    1  UNK11      -0.0407
     47 CD2        -7.3142    6.7276   -7.9124 C.ar    5  TRP55       0.0029
     48 C          -4.0008    7.1369   -1.9655 C.2     3  UNK33       0.2390
     49 CB         -7.7904    0.3440   -3.7872 C.3     6  ASP66       0.0138
     50 CD1        -6.6035    8.1081   -6.2732 C.ar    5  TRP55       0.0060
     51 CE2        -6.8619    7.9105   -8.5007 C.ar    5  TRP55       0.0467
     52 C          -5.4543    5.3089    0.4041 C.2     2  ASP22       0.2345
     53 CB         -5.2024    4.7082    2.7525 C.3     2  ASP22       0.0138
     54 C          -3.9681   -2.7175    5.6913 C.ar    1  UNK11      -0.0600
     55 C          -4.6324   -5.0233    5.5991 C.ar    1  UNK11      -0.0600
     56 C          -4.7905    8.8793   -0.3339 C.ar    3  UNK33       0.0189
     57 CE3        -7.8021    5.7066   -8.7526 C.ar    5  TRP55      -0.0523
     58 C          -4.0653   -3.9637    6.2996 C.ar    1  UNK11      -0.0616
     59 CZ2        -6.8849    8.1279   -9.8843 C.ar    5  TRP55      -0.0378
     60 CG         -6.8429   -0.0851   -4.8899 C.2     6  ASP66       0.0440
     61 CZ3        -7.8308    5.9066  -10.1375 C.ar    5  TRP55      -0.0611
     62 C          -5.9098    9.5768   -0.7546 C.ar    3  UNK33      -0.0493
     63 CH2        -7.3819    7.1018  -10.6931 C.ar    5  TRP55      -0.0598
     64 CG         -5.6809    4.2687    4.1234 C.2     2  ASP22       0.0440
     65 C          -5.8394   10.9641   -0.4314 C.ar    3  UNK33      -0.0544
     66 C          -4.6693   11.2847    0.2180 C.ar    3  UNK33      -0.0240
@<TRIPOS>BOND
     1     1    56   ar
     2     1    66   ar
     3     2    26    2
     4     3    35    2
     5     4    37    2
     6     5    39    2
     7     6    40    2
     8     7    48    2
     9     8    52    2
    10     9    60   ar
    11    10    60   ar
    12    11    64   ar
    13    12    64   ar
    14    13    22    1
    15    13    23    1
    16    14    24    1
    17    14    25    1
    18    14    32    1
    19    15    28    1
    20    15    40   am
    21    16    35   am
    22    16    31    1
    23    17    48   am
    24    17    29    1
    25    18    39   am
    26    18    36    1
    27    19    37   am
    28    19    41    1
    29    20    52   am
    30    20    44    1
    31    21    50   ar
    32    21    51   ar
    33    22    24    1
    34    23    25    1
    35    26    27    1
    36    26    13   am
    37    28    37    1
    38    28    27    1
    39    29    35    1
    40    29    30    1
    41    30    33    1
    42    31    39    1
    43    31    34    1
    44    32    45   ar
    45    32    46   ar
    46    33    43    1
    47    33    42    1
    48    34    38    1
    49    36    40    1
    50    36    49    1
    51    38    47   ar
    52    38    50   ar
    53    41    52    1
    54    41    53    1
    55    44    48    1
    56    44    56    1
    57    45    54   ar
    58    46    55   ar
    59    47    57   ar
    60    47    51   ar
    61    49    60    1
    62    51    59   ar
    63    53    64    1
    64    54    58   ar
    65    55    58   ar
    66    56    62   ar
    67    57    61   ar
    68    59    63   ar
    69    61    63   ar
    70    62    65   ar
    71    65    66   ar
@<TRIPOS>MOLECULE
../ET1/ET1_17-21_50CONFORMERS.pdb
 47 48 0 0 0
SMALL
GASTEIGER

@<TRIPOS>ATOM
      1  N         -4.8080   -0.2970   -0.9290 N.3    17  LEU17      -0.1231
      2  CA        -5.9910   -1.0610   -0.7270 C.3    17  LEU17       0.1693
      3  CB        -5.8780   -2.0210    0.4520 C.3    17  LEU17       0.0284
      4  CG        -6.9900   -3.1010    0.6230 C.3    17  LEU17       0.0019
      5  CD1       -6.7630   -4.2450   -0.4740 C.3    17  LEU17       0.0001
      6  CD2       -6.7750   -3.7750    1.9210 C.3    17  LEU17       0.0001
      7  C         -7.1830   -0.1040   -0.6760 C.2    17  LEU17       0.2592
      8  O         -8.0980   -0.2270   -1.4250 O.2    17  LEU17      -0.2718
      9  N         -7.1240    1.0000    0.1280 N.am   18  ASP18      -0.1960
     10  CA        -8.1570    2.0130    0.3670 C.3    18  ASP18       0.1840
     11  CB        -9.0150    1.6120    1.5630 C.3    18  ASP18       0.1450
     12  CG        -9.9640    2.7160    1.9110 C.2    18  ASP18       0.3671
     13  OD1       -9.9710    3.1650    3.0820 O.co2  18  ASP18      -0.2456
     14  OD2      -10.7630    3.1150    1.0500 O.co2  18  ASP18      -0.2456
     15  C         -7.5870    3.4430    0.4790 C.2    18  ASP18       0.2622
     16  O         -7.9950    4.3790   -0.2480 O.2    18  ASP18      -0.2715
     17  N         -6.4540    3.5350    1.2260 N.am   19  ILE19      -0.1963
     18  CA        -5.7860    4.8360    1.3660 C.3    19  ILE19       0.1727
     19  CB        -4.8450    4.7280    2.6100 C.3    19  ILE19       0.0290
     20  CG2       -3.9210    5.9590    2.5900 C.3    19  ILE19       0.0023
     21  CG1       -5.6770    4.5630    3.9050 C.3    19  ILE19       0.0022
     22  CD1       -6.3760    5.8650    4.4140 C.3    19  ILE19       0.0001
     23  C         -5.2490    5.3490    0.0300 C.2    19  ILE19       0.2616
     24  O         -5.2780    6.5640   -0.1680 O.2    19  ILE19      -0.2715
     25  N         -4.6560    4.5500   -0.8590 N.am   20  ILE20      -0.1963
     26  CA        -4.0140    4.9190   -2.1450 C.3    20  ILE20       0.1727
     27  CB        -2.4910    5.2510   -2.0540 C.3    20  ILE20       0.0290
     28  CG2       -1.9600    5.9610   -0.8610 C.3    20  ILE20       0.0023
     29  CG1       -1.7310    3.9700   -2.3920 C.3    20  ILE20       0.0022
     30  CD1       -0.2300    4.2530   -2.7120 C.3    20  ILE20       0.0001
     31  C         -4.3420    3.9980   -3.2490 C.2    20  ILE20       0.2617
     32  O         -4.4930    2.7990   -2.9710 O.2    20  ILE20      -0.2715
     33  N         -4.3390    4.5080   -4.4930 N.am   21  TRP21      -0.1941
     34  CA        -4.6400    3.7240   -5.7090 C.3    21  TRP21       0.1982
     35  CB        -6.1690    3.6680   -6.0990 C.3    21  TRP21       0.0394
     36  CG        -6.9060    4.9880   -6.2280 C.3    21  TRP21       0.0475
     37  CD1       -7.4050    5.7640   -5.2550 C.3    21  TRP21       0.1166
     38  NE1       -7.8560    6.8940   -5.7820 N.pl3  21  TRP21      -0.2376
     39  CE2       -7.6610    7.0170   -7.1640 C.ar   21  TRP21       0.0614
     40  CZ2       -7.9930    7.9650   -8.1240 C.ar   21  TRP21       0.0158
     41  CH2       -7.6550    7.7020   -9.4830 C.ar   21  TRP21       0.0013
     42  CZ3       -6.9780    6.4690   -9.8170 C.ar   21  TRP21      -0.0002
     43  CE3       -6.7360    5.5540   -8.7670 C.ar   21  TRP21      -0.0030
     44  CD2       -7.0160    5.7580   -7.4360 C.ar   21  TRP21      -0.0059
     45  C         -3.7970    4.1190   -6.8800 C.2    21  TRP21       0.3842
     46  O         -3.3450    3.2160   -7.6020 O.co2  21  TRP21      -0.2437
     47  OXT       -3.5300    5.2970   -7.1570 O.co2  21  TRP21      -0.2437
@<TRIPOS>BOND
     1    40    41   ar
     2    40    39   ar
     3    41    42   ar
     4    39    38    1
     5    39    44   ar
     6    42    43   ar
     7    38    37    1
     8    43    44   ar
     9    44    36    1
    10    37    36    1
    11    36    35    1
    12    47    45   ar
    13     5     4    1
    14    35    34    1
    15    45    34    1
    16    45    46   ar
    17    34    33    1
    18     8     7    2
    19     4     6    1
    20     4     3    1
    21     2     3    1
    22     2     1    1
    23     2     7    1
    24     7     9   am
    25    33    31   am
    26    32    31    2
    27    31    26    1
    28     9    10    1
    29    10    11    1
    30    10    15    1
    31    26    27    1
    32    26    25    1
    33    11    12    1
    34    13    12   ar
    35    27    29    1
    36    27    28    1
    37    29    30    1
    38    16    15    2
    39    15    17   am
    40    12    14   ar
    41    25    23   am
    42    17    18    1
    43    23    24    2
    44    23    18    1
    45    18    19    1
    46    19    21    1
    47    19    20    1
    48    21    22    1
