@<TRIPOS>MOLECULE
scripts/ET1_17-21_50CONFORMERS_NOBACKBONE.pdb
 26 23 0 0 0
SMALL
GASTEIGER

@<TRIPOS>ATOM
      1  CB        -5.4700   -1.7730   -3.1120 C.3    17  LEU17       0.0000
      2  CG        -6.7900   -2.5440   -3.4740 C.3    17  LEU17       0.0000
      3  CD1       -7.0450   -2.3540   -4.9550 C.3    17  LEU17       0.0000
      4  CD2       -6.7910   -4.0540   -3.2680 C.3    17  LEU17       0.0000
      5  CB        -9.0330   -0.0920   -0.3620 C.3    18  ASP18       0.1258
      6  CG       -10.2330    0.4120    0.4010 C.2    18  ASP18       0.3654
      7  OD1      -11.1160    1.0220   -0.2680 O.co2  18  ASP18      -0.2456
      8  OD2      -10.4510    0.1630    1.6130 O.co2  18  ASP18      -0.2456
      9  CB        -5.4710    2.2040    3.1630 C.3    19  ILE19       0.0000
     10  CG2       -5.1840    3.1650    4.3090 C.3    19  ILE19       0.0000
     11  CG1       -6.1520    0.8640    3.6900 C.3    19  ILE19       0.0000
     12  CD1       -5.5640    0.1860    4.9100 C.3    19  ILE19       0.0000
     13  CB        -2.8050    5.3000    0.0680 C.3    20  ILE20       0.0000
     14  CG2       -2.8110    6.1260    1.4110 C.3    20  ILE20       0.0000
     15  CG1       -1.8290    4.1090    0.1720 C.3    20  ILE20       0.0000
     16  CD1       -0.3670    4.5410    0.3990 C.3    20  ILE20       0.0000
     17  CB        -4.4580    6.4030   -4.9110 C.3    21  TRP21       0.0066
     18  CG        -4.3280    6.3820   -6.4230 C.3    21  TRP21       0.0452
     19  CD1       -4.4150    7.5280   -7.1320 C.3    21  TRP21       0.1165
     20  NE1       -4.1980    7.3100   -8.4730 N.pl3  21  TRP21      -0.2376
     21  CE2       -4.0690    5.9840   -8.7560 C.ar   21  TRP21       0.0614
     22  CZ2       -3.7460    5.2670   -9.9520 C.ar   21  TRP21       0.0158
     23  CH2       -3.6540    3.8750   -9.8130 C.ar   21  TRP21       0.0013
     24  CZ3       -4.0280    3.2260   -8.6640 C.ar   21  TRP21      -0.0002
     25  CE3       -4.2890    4.0000   -7.5300 C.ar   21  TRP21      -0.0030
     26  CD2       -4.2870    5.3570   -7.4880 C.ar   21  TRP21      -0.0059
@<TRIPOS>BOND
     1    22    23   ar
     2    22    21   ar
     3    23    24   ar
     4    21    20    1
     5    21    26   ar
     6    24    25   ar
     7    20    19    1
     8    25    26   ar
     9    26    18    1
    10    19    18    1
    11    18    17    1
    12     3     2    1
    13     2     4    1
    14     2     1    1
    15     5     6    1
    16     7     6   ar
    17    13    15    1
    18    13    14    1
    19    15    16    1
    20     6     8   ar
    21     9    11    1
    22     9    10    1
    23    11    12    1
@<TRIPOS>MOLECULE
16219006
 44 47 0 0 0
SMALL
GASTEIGER

@<TRIPOS>ATOM
      1 O          -8.5574    1.9166    0.6848 O.2     1  PRO11      -0.2738
      2 O          -6.3703   -1.5838   -0.9117 O.2     5  ASP55      -0.2735
      3 O          -3.8231    0.9524   -0.1990 O.2     2  VAL22      -0.2738
      4 O          -7.7762    0.2183   -5.3050 O.2     4  TRP44      -0.2738
      5 O          -6.2578    3.1575   -3.1479 O.2     3  LEU33      -0.2738
      6 OD1        -4.9514   -2.7528   -5.4692 O.co2   5  ASP55      -0.5497
      7 OD2        -6.8471   -4.0249   -5.2824 O.co2   5  ASP55      -0.5497
      8 N          -8.3761   -0.7077   -1.4716 N.am    1  PRO11      -0.2884
      9 N          -6.6486    0.6605    0.6638 N.am    2  VAL22      -0.3022
     10 N          -6.2080   -0.4764   -3.7733 N.am    5  ASP55      -0.3021
     11 N          -4.8035    2.9177   -0.8557 N.am    3  LEU33      -0.3025
     12 N          -4.7381    1.7838   -4.1750 N.am    4  TRP44      -0.3022
     13 NE1        -1.9014    2.6698   -7.5710 N.ar    4  TRP44      -0.3604
     14 CA         -8.7296   -0.4092   -0.0821 C.3     1  PRO11       0.1023
     15 CB        -10.2482   -0.2301   -0.1202 C.3     1  PRO11      -0.0243
     16 CG        -10.5030    0.3099   -1.5222 C.3     1  PRO11      -0.0350
     17 CD         -9.4865   -0.4382   -2.3715 C.3     1  PRO11       0.0156
     18 C          -7.9942    0.8521    0.4380 C.2     1  PRO11       0.2342
     19 C          -7.2086   -1.3678   -1.7978 C.2     5  ASP55       0.2369
     20 CA         -5.7484    1.7329    1.0750 C.3     2  VAL22       0.1017
     21 CA         -6.9169   -1.6583   -3.2889 C.3     5  ASP55       0.1047
     22 CB         -5.1216    1.4415    2.4563 C.3     2  VAL22      -0.0197
     23 CA         -4.0781    2.9714   -2.1197 C.3     3  LEU33       0.0996
     24 C          -4.6799    1.8175   -0.0311 C.2     2  VAL22       0.2342
     25 CB         -6.0362   -2.8954   -3.3930 C.3     5  ASP55       0.0138
     26 CA         -5.6633    1.4039   -5.2531 C.3     4  TRP44       0.1034
     27 CB         -3.4962    4.3620   -2.4093 C.3     3  LEU33      -0.0236
     28 CG         -2.2428    4.7224   -1.5840 C.3     3  LEU33      -0.0446
     29 C          -6.6785    0.3509   -4.7666 C.2     4  TRP44       0.2343
     30 CB         -4.9208    0.8546   -6.4803 C.3     4  TRP44       0.0013
     31 C          -5.1365    2.6496   -3.1876 C.2     3  LEU33       0.2340
     32 CG1        -4.0638    2.4876    2.8282 C.3     2  VAL22      -0.0605
     33 CG2        -6.1967    1.4154    3.5498 C.3     2  VAL22      -0.0605
     34 CG         -3.8776    1.8016   -7.0115 C.ar    4  TRP44      -0.0201
     35 CG         -5.9421   -3.2523   -4.8624 C.2     5  ASP55       0.0440
     36 CD1        -2.5470    4.9599   -0.1046 C.3     3  LEU33      -0.0626
     37 CD2        -1.5866    5.9775   -2.1679 C.3     3  LEU33      -0.0626
     38 CD2        -4.0876    3.1003   -7.5801 C.ar    4  TRP44       0.0029
     39 CD1        -2.5147    1.5735   -7.0319 C.ar    4  TRP44       0.0060
     40 CE2        -2.8343    3.6242   -7.9017 C.ar    4  TRP44       0.0467
     41 CE3        -5.2285    3.8860   -7.8443 C.ar    4  TRP44      -0.0523
     42 CZ2        -2.6643    4.8966   -8.4616 C.ar    4  TRP44      -0.0378
     43 CZ3        -5.0770    5.1610   -8.4015 C.ar    4  TRP44      -0.0611
     44 CH2        -3.8117    5.6579   -8.7024 C.ar    4  TRP44      -0.0598
@<TRIPOS>BOND
     1     1    18    2
     2     2    19    2
     3     3    24    2
     4     4    29    2
     5     5    31    2
     6     6    35   ar
     7     7    35   ar
     8     8    14    1
     9     8    17    1
    10     8    19   am
    11     9    18   am
    12     9    20    1
    13    10    21    1
    14    10    29   am
    15    11    23    1
    16    11    24   am
    17    12    26    1
    18    12    31   am
    19    13    39   ar
    20    13    40   ar
    21    14    15    1
    22    14    18    1
    23    15    16    1
    24    16    17    1
    25    19    21    1
    26    20    22    1
    27    20    24    1
    28    21    25    1
    29    22    32    1
    30    22    33    1
    31    23    27    1
    32    23    31    1
    33    25    35    1
    34    26    29    1
    35    26    30    1
    36    27    28    1
    37    28    36    1
    38    28    37    1
    39    30    34    1
    40    34    38   ar
    41    34    39   ar
    42    38    40   ar
    43    38    41   ar
    44    40    42   ar
    45    41    43   ar
    46    42    44   ar
    47    43    44   ar
@<TRIPOS>MOLECULE
scripts/ET1_17-21_50CONFORMERS.pdb
 47 48 0 0 0
SMALL
GASTEIGER

@<TRIPOS>ATOM
      1  N         -4.2160    0.4160   -2.9520 N.3    17  LEU17      -0.1231
      2  CA        -5.4630   -0.2520   -3.4030 C.3    17  LEU17       0.1693
      3  CB        -5.4700   -1.7730   -3.1120 C.3    17  LEU17       0.0284
      4  CG        -6.7900   -2.5440   -3.4740 C.3    17  LEU17       0.0019
      5  CD1       -7.0450   -2.3540   -4.9550 C.3    17  LEU17       0.0001
      6  CD2       -6.7910   -4.0540   -3.2680 C.3    17  LEU17       0.0001
      7  C         -6.7900    0.3610   -2.8310 C.2    17  LEU17       0.2592
      8  O         -7.6240    0.6580   -3.6850 O.2    17  LEU17      -0.2718
      9  N         -6.9720    0.5400   -1.5390 N.am   18  ASP18      -0.1960
     10  CA        -8.1540    1.0840   -0.8410 C.3    18  ASP18       0.1840
     11  CB        -9.0330   -0.0920   -0.3620 C.3    18  ASP18       0.1450
     12  CG       -10.2330    0.4120    0.4010 C.2    18  ASP18       0.3671
     13  OD1      -11.1160    1.0220   -0.2680 O.co2  18  ASP18      -0.2456
     14  OD2      -10.4510    0.1630    1.6130 O.co2  18  ASP18      -0.2456
     15  C         -7.7900    2.1820    0.2340 C.2    18  ASP18       0.2622
     16  O         -8.3300    3.2620    0.2010 O.2    18  ASP18      -0.2715
     17  N         -6.8500    1.8540    1.1550 N.am   19  ILE19      -0.1963
     18  CA        -6.3420    2.8860    2.0970 C.3    19  ILE19       0.1727
     19  CB        -5.4710    2.2040    3.1630 C.3    19  ILE19       0.0290
     20  CG2       -5.1840    3.1650    4.3090 C.3    19  ILE19       0.0023
     21  CG1       -6.1520    0.8640    3.6900 C.3    19  ILE19       0.0022
     22  CD1       -5.5640    0.1860    4.9100 C.3    19  ILE19       0.0001
     23  C         -5.7590    4.0730    1.4210 C.2    19  ILE19       0.2616
     24  O         -6.0490    5.1730    1.8250 O.2    19  ILE19      -0.2715
     25  N         -4.8150    3.8950    0.4790 N.am   20  ILE20      -0.1963
     26  CA        -4.2330    4.9020   -0.4020 C.3    20  ILE20       0.1727
     27  CB        -2.8050    5.3000    0.0680 C.3    20  ILE20       0.0290
     28  CG2       -2.8110    6.1260    1.4110 C.3    20  ILE20       0.0023
     29  CG1       -1.8290    4.1090    0.1720 C.3    20  ILE20       0.0022
     30  CD1       -0.3670    4.5410    0.3990 C.3    20  ILE20       0.0001
     31  C         -4.1810    4.4800   -1.8450 C.2    20  ILE20       0.2617
     32  O         -4.4770    3.2490   -2.1480 O.2    20  ILE20      -0.2715
     33  N         -3.9440    5.5160   -2.6450 N.am   21  TRP21      -0.1941
     34  CA        -3.5940    5.3680   -4.0770 C.3    21  TRP21       0.1982
     35  CB        -4.4580    6.4030   -4.9110 C.3    21  TRP21       0.0394
     36  CG        -4.3280    6.3820   -6.4230 C.3    21  TRP21       0.0475
     37  CD1       -4.4150    7.5280   -7.1320 C.3    21  TRP21       0.1166
     38  NE1       -4.1980    7.3100   -8.4730 N.pl3  21  TRP21      -0.2376
     39  CE2       -4.0690    5.9840   -8.7560 C.ar   21  TRP21       0.0614
     40  CZ2       -3.7460    5.2670   -9.9520 C.ar   21  TRP21       0.0158
     41  CH2       -3.6540    3.8750   -9.8130 C.ar   21  TRP21       0.0013
     42  CZ3       -4.0280    3.2260   -8.6640 C.ar   21  TRP21      -0.0002
     43  CE3       -4.2890    4.0000   -7.5300 C.ar   21  TRP21      -0.0030
     44  CD2       -4.2870    5.3570   -7.4880 C.ar   21  TRP21      -0.0059
     45  C         -2.1160    5.4700   -4.2830 C.2    21  TRP21       0.3842
     46  O         -1.4560    6.4110   -3.8260 O.co2  21  TRP21      -0.2437
     47  OXT       -1.5070    4.6100   -5.0100 O.co2  21  TRP21      -0.2437
@<TRIPOS>BOND
     1    40    41   ar
     2    40    39   ar
     3    41    42   ar
     4    39    38    1
     5    39    44   ar
     6    42    43   ar
     7    38    37    1
     8    43    44   ar
     9    44    36    1
    10    37    36    1
    11    36    35    1
    12    47    45   ar
    13     5     4    1
    14    35    34    1
    15    45    34    1
    16    45    46   ar
    17    34    33    1
    18     8     7    2
    19     4     6    1
    20     4     3    1
    21     2     3    1
    22     2     1    1
    23     2     7    1
    24     7     9   am
    25    33    31   am
    26    32    31    2
    27    31    26    1
    28     9    10    1
    29    10    11    1
    30    10    15    1
    31    26    27    1
    32    26    25    1
    33    11    12    1
    34    13    12   ar
    35    27    29    1
    36    27    28    1
    37    29    30    1
    38    16    15    2
    39    15    17   am
    40    12    14   ar
    41    25    23   am
    42    17    18    1
    43    23    24    2
    44    23    18    1
    45    18    19    1
    46    19    21    1
    47    19    20    1
    48    21    22    1
