@<TRIPOS>MOLECULE
scripts/ET1_17-21_50CONFORMERS_NOBACKBONE.pdb
 26 23 0 0 0
SMALL
GASTEIGER

@<TRIPOS>ATOM
      1  CB        -5.5600   -1.8760   -2.4960 C.3    17  LEU17       0.0000
      2  CG        -6.8600   -2.5850   -2.8960 C.3    17  LEU17       0.0000
      3  CD1       -7.1340   -2.5660   -4.3750 C.3    17  LEU17       0.0000
      4  CD2       -6.7590   -4.0120   -2.4400 C.3    17  LEU17       0.0000
      5  CB        -9.1330   -0.1140   -0.3870 C.3    18  ASP18       0.1258
      6  CG       -10.5190    0.2590    0.1090 C.2    18  ASP18       0.3654
      7  OD1      -10.6870    0.1950    1.3500 O.co2  18  ASP18      -0.2456
      8  OD2      -11.3630    0.6190   -0.7170 O.co2  18  ASP18      -0.2456
      9  CB        -6.2400    2.6510    3.3830 C.3    19  ILE19       0.0000
     10  CG2       -4.8340    2.1790    3.0100 C.3    19  ILE19       0.0000
     11  CG1       -6.1590    3.8270    4.4510 C.3    19  ILE19       0.0000
     12  CD1       -6.2900    3.2210    5.8430 C.3    19  ILE19       0.0000
     13  CB        -3.7050    5.8140    0.2540 C.3    20  ILE20       0.0000
     14  CG2       -4.0800    6.7630    1.4120 C.3    20  ILE20       0.0000
     15  CG1       -2.4080    5.0920    0.7870 C.3    20  ILE20       0.0000
     16  CD1       -1.5810    4.4340   -0.3390 C.3    20  ILE20       0.0000
     17  CB        -4.5040    4.7650   -4.9540 C.3    21  TRP21       0.0066
     18  CG        -4.1660    4.1700   -6.3060 C.3    21  TRP21       0.0452
     19  CD1       -3.6480    4.8090   -7.4240 C.3    21  TRP21       0.1165
     20  NE1       -3.6150    3.9660   -8.5310 N.pl3  21  TRP21      -0.2376
     21  CE2       -4.2200    2.7770   -8.1780 C.ar   21  TRP21       0.0614
     22  CZ2       -4.3080    1.5720   -8.8160 C.ar   21  TRP21       0.0158
     23  CH2       -5.0040    0.4940   -8.2370 C.ar   21  TRP21       0.0013
     24  CZ3       -5.4670    0.6240   -6.9110 C.ar   21  TRP21      -0.0002
     25  CE3       -5.3310    1.8220   -6.2160 C.ar   21  TRP21      -0.0030
     26  CD2       -4.6430    2.8870   -6.8160 C.ar   21  TRP21      -0.0059
@<TRIPOS>BOND
     1    22    23   ar
     2    22    21   ar
     3    23    24   ar
     4    21    20    1
     5    21    26   ar
     6    24    25   ar
     7    20    19    1
     8    25    26   ar
     9    26    18    1
    10    19    18    1
    11    18    17    1
    12     3     2    1
    13     2     4    1
    14     2     1    1
    15     5     6    1
    16     7     6   ar
    17    13    15    1
    18    13    14    1
    19    15    16    1
    20     6     8   ar
    21     9    11    1
    22     9    10    1
    23    11    12    1
@<TRIPOS>MOLECULE
16219006
 44 47 0 0 0
SMALL
GASTEIGER

@<TRIPOS>ATOM
      1 O          -4.7070   -0.4916    3.3901 O.2     1  PRO11      -0.2738
      2 O          -8.2585    0.8574    1.3510 O.2     5  ASP55      -0.2735
      3 O          -6.5969    3.6142    1.7877 O.2     2  VAL22      -0.2738
      4 O          -5.8325   -0.5719   -2.4044 O.2     4  TRP44      -0.2738
      5 O          -3.3321    2.0270   -0.8163 O.2     3  LEU33      -0.2738
      6 OD1       -10.0971   -1.8789   -0.2146 O.co2   5  ASP55      -0.5497
      7 OD2       -11.8223   -0.4804   -0.7313 O.co2   5  ASP55      -0.5497
      8 N          -7.1196   -1.0975    1.2017 N.am    1  PRO11      -0.2884
      9 N          -6.3509    1.0957    3.2446 N.am    2  VAL22      -0.3022
     10 N          -7.3064    0.8955   -1.4379 N.am    5  ASP55      -0.3021
     11 N          -4.3483    3.3032    1.5634 N.am    3  LEU33      -0.3025
     12 N          -5.2776    2.8605   -1.7134 N.am    4  TRP44      -0.3022
     13 NE1        -6.7902   -0.2574   -6.4756 N.ar    4  TRP44      -0.3604
     14 CA         -6.9354   -1.2047    2.6485 C.3     1  PRO11       0.1023
     15 CB         -6.5135   -2.6589    2.8731 C.3     1  PRO11      -0.0243
     16 CG         -5.8660   -3.0525    1.5512 C.3     1  PRO11      -0.0350
     17 CD         -6.7191   -2.3212    0.5284 C.3     1  PRO11       0.0156
     18 C          -5.8720   -0.1939    3.1338 C.2     1  PRO11       0.2342
     19 C          -7.9221   -0.1150    0.6592 C.2     5  ASP55       0.2369
     20 CA         -5.4792    2.2370    3.4740 C.3     2  VAL22       0.1017
     21 CA         -8.1941   -0.1328   -0.8634 C.3     5  ASP55       0.1047
     22 CB         -5.8431    2.9800    4.7785 C.3     2  VAL22      -0.0197
     23 CA         -4.3180    3.9621    0.2639 C.3     3  LEU33       0.0996
     24 C          -5.5530    3.1216    2.2116 C.2     2  VAL22       0.2342
     25 CB         -9.6365    0.2494   -1.1570 C.3     5  ASP55       0.0138
     26 CA         -5.4072    1.7984   -2.7287 C.3     4  TRP44       0.1034
     27 CB         -3.1052    4.8909    0.1380 C.3     3  LEU33      -0.0236
     28 CG         -3.0870    6.0532    1.1536 C.3     3  LEU33      -0.0446
     29 C          -6.1551    0.5832   -2.1316 C.2     4  TRP44       0.2343
     30 CB         -6.1592    2.3517   -3.9535 C.3     4  TRP44       0.0013
     31 C          -4.2417    2.8530   -0.8032 C.2     3  LEU33       0.2340
     32 CG1        -7.2734    3.5253    4.8219 C.3     2  VAL22      -0.0605
     33 CG2        -4.8463    4.1045    5.0738 C.3     2  VAL22      -0.0605
     34 CG         -6.2105    1.4335   -5.1382 C.ar    4  TRP44      -0.0201
     35 CG        -10.6050   -0.8067   -0.6421 C.2     5  ASP55       0.0440
     36 CD1        -1.8357    6.9073    0.9366 C.3     3  LEU33      -0.0626
     37 CD2        -4.3341    6.9353    1.0669 C.3     3  LEU33      -0.0626
     38 CD2        -5.4704    1.5354   -6.3628 C.ar    4  TRP44       0.0029
     39 CD1        -7.0320    0.3301   -5.2662 C.ar    4  TRP44       0.0060
     40 CE2        -5.8598    0.4703   -7.1783 C.ar    4  TRP44       0.0467
     41 CE3        -4.5083    2.4387   -6.8620 C.ar    4  TRP44      -0.0523
     42 CZ2        -5.3395    0.2631   -8.4617 C.ar    4  TRP44      -0.0378
     43 CZ3        -3.9822    2.2503   -8.1465 C.ar    4  TRP44      -0.0611
     44 CH2        -4.3934    1.1770   -8.9326 C.ar    4  TRP44      -0.0598
@<TRIPOS>BOND
     1     1    18    2
     2     2    19    2
     3     3    24    2
     4     4    29    2
     5     5    31    2
     6     6    35   ar
     7     7    35   ar
     8     8    14    1
     9     8    17    1
    10     8    19   am
    11     9    18   am
    12     9    20    1
    13    10    21    1
    14    10    29   am
    15    11    23    1
    16    11    24   am
    17    12    26    1
    18    12    31   am
    19    13    39   ar
    20    13    40   ar
    21    14    15    1
    22    14    18    1
    23    15    16    1
    24    16    17    1
    25    19    21    1
    26    20    22    1
    27    20    24    1
    28    21    25    1
    29    22    32    1
    30    22    33    1
    31    23    27    1
    32    23    31    1
    33    25    35    1
    34    26    29    1
    35    26    30    1
    36    27    28    1
    37    28    36    1
    38    28    37    1
    39    30    34    1
    40    34    38   ar
    41    34    39   ar
    42    38    40   ar
    43    38    41   ar
    44    40    42   ar
    45    41    43   ar
    46    42    44   ar
    47    43    44   ar
@<TRIPOS>MOLECULE
scripts/ET1_17-21_50CONFORMERS.pdb
 47 48 0 0 0
SMALL
GASTEIGER

@<TRIPOS>ATOM
      1  N         -4.1620    0.1770   -2.2540 N.3    17  LEU17      -0.1231
      2  CA        -5.3890   -0.3930   -2.7840 C.3    17  LEU17       0.1693
      3  CB        -5.5600   -1.8760   -2.4960 C.3    17  LEU17       0.0284
      4  CG        -6.8600   -2.5850   -2.8960 C.3    17  LEU17       0.0019
      5  CD1       -7.1340   -2.5660   -4.3750 C.3    17  LEU17       0.0001
      6  CD2       -6.7590   -4.0120   -2.4400 C.3    17  LEU17       0.0001
      7  C         -6.6340    0.5790   -2.5340 C.2    17  LEU17       0.2592
      8  O         -7.2520    0.9240   -3.5380 O.2    17  LEU17      -0.2718
      9  N         -7.0610    0.7170   -1.3030 N.am   18  ASP18      -0.1960
     10  CA        -8.3850    1.1220   -0.9340 C.3    18  ASP18       0.1840
     11  CB        -9.1330   -0.1140   -0.3870 C.3    18  ASP18       0.1450
     12  CG       -10.5190    0.2590    0.1090 C.2    18  ASP18       0.3671
     13  OD1      -10.6870    0.1950    1.3500 O.co2  18  ASP18      -0.2456
     14  OD2      -11.3630    0.6190   -0.7170 O.co2  18  ASP18      -0.2456
     15  C         -8.1950    2.3170    0.0710 C.2    18  ASP18       0.2622
     16  O         -8.8070    3.3530   -0.1690 O.2    18  ASP18      -0.2715
     17  N         -7.4680    2.0920    1.1690 N.am   19  ILE19      -0.1963
     18  CA        -7.1440    3.1470    2.1900 C.3    19  ILE19       0.1727
     19  CB        -6.2400    2.6510    3.3830 C.3    19  ILE19       0.0290
     20  CG2       -4.8340    2.1790    3.0100 C.3    19  ILE19       0.0023
     21  CG1       -6.1590    3.8270    4.4510 C.3    19  ILE19       0.0022
     22  CD1       -6.2900    3.2210    5.8430 C.3    19  ILE19       0.0001
     23  C         -6.5590    4.2680    1.3570 C.2    19  ILE19       0.2616
     24  O         -7.1230    5.3880    1.3430 O.2    19  ILE19      -0.2715
     25  N         -5.4440    4.0380    0.5930 N.am   20  ILE20      -0.1963
     26  CA        -4.8730    4.9550   -0.3770 C.3    20  ILE20       0.1727
     27  CB        -3.7050    5.8140    0.2540 C.3    20  ILE20       0.0290
     28  CG2       -4.0800    6.7630    1.4120 C.3    20  ILE20       0.0023
     29  CG1       -2.4080    5.0920    0.7870 C.3    20  ILE20       0.0022
     30  CD1       -1.5810    4.4340   -0.3390 C.3    20  ILE20       0.0001
     31  C         -4.5500    4.2860   -1.6860 C.2    20  ILE20       0.2617
     32  O         -4.6770    3.1090   -1.8670 O.2    20  ILE20      -0.2715
     33  N         -4.0000    5.0300   -2.6580 N.am   21  TRP21      -0.1941
     34  CA        -3.4560    4.6010   -3.9210 C.3    21  TRP21       0.1982
     35  CB        -4.5040    4.7650   -4.9540 C.3    21  TRP21       0.0394
     36  CG        -4.1660    4.1700   -6.3060 C.3    21  TRP21       0.0475
     37  CD1       -3.6480    4.8090   -7.4240 C.3    21  TRP21       0.1166
     38  NE1       -3.6150    3.9660   -8.5310 N.pl3  21  TRP21      -0.2376
     39  CE2       -4.2200    2.7770   -8.1780 C.ar   21  TRP21       0.0614
     40  CZ2       -4.3080    1.5720   -8.8160 C.ar   21  TRP21       0.0158
     41  CH2       -5.0040    0.4940   -8.2370 C.ar   21  TRP21       0.0013
     42  CZ3       -5.4670    0.6240   -6.9110 C.ar   21  TRP21      -0.0002
     43  CE3       -5.3310    1.8220   -6.2160 C.ar   21  TRP21      -0.0030
     44  CD2       -4.6430    2.8870   -6.8160 C.ar   21  TRP21      -0.0059
     45  C         -2.1620    5.4310   -4.2590 C.2    21  TRP21       0.3842
     46  O         -2.1260    6.6300   -4.0970 O.co2  21  TRP21      -0.2437
     47  OXT       -1.2210    4.8480   -4.8090 O.co2  21  TRP21      -0.2437
@<TRIPOS>BOND
     1    40    41   ar
     2    40    39   ar
     3    41    42   ar
     4    39    38    1
     5    39    44   ar
     6    42    43   ar
     7    38    37    1
     8    43    44   ar
     9    44    36    1
    10    37    36    1
    11    36    35    1
    12    47    45   ar
    13     5     4    1
    14    35    34    1
    15    45    34    1
    16    45    46   ar
    17    34    33    1
    18     8     7    2
    19     4     6    1
    20     4     3    1
    21     2     3    1
    22     2     1    1
    23     2     7    1
    24     7     9   am
    25    33    31   am
    26    32    31    2
    27    31    26    1
    28     9    10    1
    29    10    11    1
    30    10    15    1
    31    26    27    1
    32    26    25    1
    33    11    12    1
    34    13    12   ar
    35    27    29    1
    36    27    28    1
    37    29    30    1
    38    16    15    2
    39    15    17   am
    40    12    14   ar
    41    25    23   am
    42    17    18    1
    43    23    24    2
    44    23    18    1
    45    18    19    1
    46    19    21    1
    47    19    20    1
    48    21    22    1
