@<TRIPOS>MOLECULE
../1EDN/3STEPMIN_17-21_NOBACKBONE.pdb
 26 23 0 0 0
SMALL
GASTEIGER

@<TRIPOS>ATOM
      1  CB        -6.9230   -0.4370    0.2770 C.3    17  LEU17       0.0000
      2  CG        -6.4950   -1.8450   -0.1910 C.3    17  LEU17       0.0000
      3  CD1       -6.5150   -2.8060    0.9980 C.3    17  LEU17       0.0000
      4  CD2       -7.4310   -2.4140   -1.2600 C.3    17  LEU17       0.0000
      5  CB        -9.0510    3.1310    2.7840 C.3    18  ASP18       0.1258
      6  CG       -10.5470    3.4340    2.8500 C.2    18  ASP18       0.3654
      7  OD1      -11.3300    2.4930    2.5610 O.co2  18  ASP18      -0.2456
      8  OD2      -10.9050    4.5930    3.1470 O.co2  18  ASP18      -0.2456
      9  CB        -4.3960    5.7260    0.0740 C.3    19  ILE19       0.0000
     10  CG2       -3.6150    6.9530   -0.4300 C.3    19  ILE19       0.0000
     11  CG1       -3.7730    5.2100    1.3920 C.3    19  ILE19       0.0000
     12  CD1       -3.8620    6.1700    2.5820 C.3    19  ILE19       0.0000
     13  CB        -6.0900    6.2460   -4.5940 C.3    20  ILE20       0.0000
     14  CG2       -6.7980    6.2490   -5.9680 C.3    20  ILE20       0.0000
     15  CG1       -5.7140    7.6970   -4.2070 C.3    20  ILE20       0.0000
     16  CD1       -4.7810    8.4150   -5.1910 C.3    20  ILE20       0.0000
     17  CB        -9.7020    1.6830   -3.5450 C.3    21  TRP21       0.0327
     18  CG       -10.4970    2.2370   -2.3850 C.ar   21  TRP21      -0.0013
     19  CD1      -10.6860    1.5470   -1.2340 C.ar   21  TRP21       0.0946
     20  NE1      -11.3350    2.3340   -0.3040 N.ar   21  TRP21      -0.2442
     21  CE2      -11.5720    3.5950   -0.7990 C.ar   21  TRP21       0.0810
     22  CZ2      -12.0950    4.7480   -0.2000 C.ar   21  TRP21       0.0191
     23  CH2      -12.2340    5.9130   -0.9670 C.ar   21  TRP21       0.0015
     24  CZ3      -11.8800    5.8920   -2.3260 C.ar   21  TRP21       0.0001
     25  CE3      -11.3480    4.7280   -2.9100 C.ar   21  TRP21       0.0012
     26  CD2      -11.1270    3.5500   -2.1550 C.ar   21  TRP21       0.0152
@<TRIPOS>BOND
     1    14    13    1
     2    16    15    1
     3    13    15    1
     4    17    18    1
     5    25    24   ar
     6    25    26   ar
     7    18    26   ar
     8    18    19   ar
     9    24    23   ar
    10    26    21   ar
    11     4     2    1
    12    19    20   ar
    13    23    22   ar
    14    21    20   ar
    15    21    22   ar
    16    10     9    1
    17     2     1    1
    18     2     3    1
    19     9    11    1
    20    11    12    1
    21     7     6   ar
    22     5     6    1
    23     6     8   ar
@<TRIPOS>MOLECULE
3047752
 70 74 0 0 0
SMALL
GASTEIGER

@<TRIPOS>ATOM
      1 O          -4.7921    1.7620   -4.3175 O.co2   1  LIG11      -0.5495
      2 O          -6.4957    0.4122   -4.9664 O.co2   1  LIG11      -0.5495
      3 O          -7.3235   -1.6489    1.7740 O.3     1  LIG11      -0.4526
      4 O          -6.6276   -3.7185    0.7441 O.3     1  LIG11      -0.4526
      5 O          -3.8849    6.7905   -0.0954 O.3     1  LIG11      -0.4951
      6 O          -7.2284    8.3244   -4.6441 O.co2   1  LIG11      -0.5495
      7 O          -5.0738    9.0315   -4.4243 O.co2   1  LIG11      -0.5495
      8 N          -9.3191    3.9212   -1.8684 N.ar    1  LIG11      -0.2556
      9 C          -6.6527    1.5539   -2.8787 C.3     1  LIG11       0.0217
     10 C          -7.1689    3.0250   -2.9136 C.3     1  LIG11       0.0357
     11 C          -7.8704    0.6264   -2.6528 C.3     1  LIG11       0.0199
     12 C          -8.9225    1.5624   -2.1328 C.ar    1  LIG11      -0.0174
     13 C          -8.5411    2.8875   -2.2538 C.ar    1  LIG11       0.0534
     14 C          -6.2731    4.0411   -2.1885 C.ar    1  LIG11      -0.0344
     15 C          -7.5297   -0.5436   -1.7328 C.ar    1  LIG11      -0.0356
     16 C          -5.9282    1.2297   -4.1860 C.2     1  LIG11       0.0466
     17 C         -10.1788    1.2550   -1.6344 C.ar    1  LIG11      -0.0546
     18 C          -5.8115    5.2423   -2.7947 C.ar    1  LIG11      -0.0395
     19 C          -5.9217    3.7902   -0.8436 C.ar    1  LIG11      -0.0542
     20 C         -10.5249    3.6147   -1.3346 C.ar    1  LIG11       0.0416
     21 C          -7.5945   -0.4480   -0.3305 C.ar    1  LIG11      -0.0124
     22 C         -10.9928    2.3023   -1.2177 C.ar    1  LIG11      -0.0401
     23 C          -7.0955   -1.7572   -2.3197 C.ar    1  LIG11      -0.0543
     24 C          -6.1854    5.5934   -4.2332 C.3     1  LIG11      -0.0196
     25 C          -5.0200    6.1219   -2.0248 C.ar    1  LIG11      -0.0165
     26 C         -11.3752    4.7684   -0.8672 C.3     1  LIG11      -0.0104
     27 C          -5.4488    6.7499   -4.9331 C.3     1  LIG11      -0.0003
     28 C          -7.2813   -1.5645    0.4160 C.ar    1  LIG11       0.1665
     29 C          -5.1276    4.6732   -0.1103 C.ar    1  LIG11      -0.0197
     30 C          -6.7724   -2.8699   -1.5369 C.ar    1  LIG11      -0.0159
     31 C          -4.6704    5.8449   -0.6992 C.ar    1  LIG11       0.1204
     32 C          -6.8853   -2.7436   -0.1709 C.ar    1  LIG11       0.1662
     33 C         -12.3987    5.1845   -1.9250 C.3     1  LIG11      -0.0479
     34 C          -5.6149    6.6405   -6.4539 C.3     1  LIG11      -0.0570
     35 C         -13.2603    6.3713   -1.4891 C.3     1  LIG11      -0.0556
     36 C          -5.9752    8.1610   -4.6197 C.2     1  LIG11       0.0449
     37 C          -6.8998   -3.0108    1.9698 C.3     1  LIG11       0.2332
     38 C         -14.2002    6.0446   -0.3376 C.3     1  LIG11      -0.0653
     39 C          -3.5699    6.5805    1.2712 C.3     1  LIG11       0.0788
     40 H          -5.9161    1.4084   -2.0769 H       1  LIG11       0.0379
     41 H          -7.3568    3.3256   -3.9490 H       1  LIG11       0.0419
     42 H          -8.2900    0.2220   -3.5822 H       1  LIG11       0.0404
     43 H         -10.5119    0.2258   -1.5655 H       1  LIG11       0.0622
     44 H          -6.2807    2.8897   -0.3520 H       1  LIG11       0.0622
     45 H          -7.8839    0.4734    0.1626 H       1  LIG11       0.0658
     46 H         -11.9752    2.0999   -0.8073 H       1  LIG11       0.0636
     47 H          -6.9956   -1.8158   -3.4050 H       1  LIG11       0.0622
     48 H          -7.2681    5.7670   -4.2588 H       1  LIG11       0.0319
     49 H          -5.9810    4.6943   -4.8285 H       1  LIG11       0.0319
     50 H          -4.6643    7.0572   -2.4543 H       1  LIG11       0.0657
     51 H         -10.7237    5.6179   -0.6262 H       1  LIG11       0.0328
     52 H         -11.8689    4.4820    0.0685 H       1  LIG11       0.0328
     53 H          -4.3750    6.6978   -4.7156 H       1  LIG11       0.0361
     54 H          -4.8923    4.4123    0.9124 H       1  LIG11       0.0654
     55 H          -6.4367   -3.7918   -1.9950 H       1  LIG11       0.0655
     56 H         -13.0467    4.3373   -2.1815 H       1  LIG11       0.0269
     57 H         -11.8707    5.4598   -2.8469 H       1  LIG11       0.0269
     58 H          -6.6716    6.6270   -6.7462 H       1  LIG11       0.0236
     59 H          -5.1540    5.7189   -6.8268 H       1  LIG11       0.0236
     60 H          -5.1361    7.4806   -6.9706 H       1  LIG11       0.0236
     61 H         -13.8624    6.6972   -2.3456 H       1  LIG11       0.0263
     62 H         -12.6212    7.2173   -1.2102 H       1  LIG11       0.0263
     63 H          -7.6875   -3.5458    2.5123 H       1  LIG11       0.1166
     64 H          -5.9923   -3.0110    2.5838 H       1  LIG11       0.1166
     65 H         -14.8316    5.1832   -0.5779 H       1  LIG11       0.0230
     66 H         -14.8558    6.8979   -0.1336 H       1  LIG11       0.0230
     67 H         -13.6499    5.8246    0.5818 H       1  LIG11       0.0230
     68 H          -2.9589    7.4240    1.6077 H       1  LIG11       0.0660
     69 H          -2.9775    5.6692    1.4076 H       1  LIG11       0.0660
     70 H          -4.4748    6.5603    1.8884 H       1  LIG11       0.0660
@<TRIPOS>BOND
     1     1    16   ar
     2     2    16   ar
     3     3    28    1
     4     3    37    1
     5     4    32    1
     6     4    37    1
     7     5    31    1
     8     5    39    1
     9     6    36   ar
    10     7    36   ar
    11     8    13   ar
    12     8    20   ar
    13     9    10    1
    14     9    11    1
    15     9    16    1
    16    10    13    1
    17    10    14    1
    18    11    12    1
    19    11    15    1
    20    12    13   ar
    21    12    17   ar
    22    14    18   ar
    23    14    19   ar
    24    15    21   ar
    25    15    23   ar
    26    17    22   ar
    27    18    24    1
    28    18    25   ar
    29    19    29   ar
    30    20    22   ar
    31    20    26    1
    32    21    28   ar
    33    23    30   ar
    34    24    27    1
    35    25    31   ar
    36    26    33    1
    37    27    34    1
    38    27    36    1
    39    28    32   ar
    40    29    31   ar
    41    30    32   ar
    42    33    35    1
    43    35    38    1
    44     9    40    1
    45    10    41    1
    46    11    42    1
    47    17    43    1
    48    19    44    1
    49    21    45    1
    50    22    46    1
    51    23    47    1
    52    24    48    1
    53    24    49    1
    54    25    50    1
    55    26    51    1
    56    26    52    1
    57    27    53    1
    58    29    54    1
    59    30    55    1
    60    33    56    1
    61    33    57    1
    62    34    58    1
    63    34    59    1
    64    34    60    1
    65    35    61    1
    66    35    62    1
    67    37    63    1
    68    37    64    1
    69    38    65    1
    70    38    66    1
    71    38    67    1
    72    39    68    1
    73    39    69    1
    74    39    70    1
@<TRIPOS>MOLECULE
../1EDN/3STEPMIN_17-21.pdb
 47 48 0 0 0
SMALL
GASTEIGER

@<TRIPOS>ATOM
      1  N         -5.4290    0.8830   -1.1740 N.3    17  LEU17      -0.1231
      2  CA        -6.8230    0.6710   -0.7980 C.3    17  LEU17       0.1693
      3  CB        -6.9230   -0.4370    0.2770 C.3    17  LEU17       0.0284
      4  CG        -6.4950   -1.8450   -0.1910 C.3    17  LEU17       0.0019
      5  CD1       -6.5150   -2.8060    0.9980 C.3    17  LEU17       0.0001
      6  CD2       -7.4310   -2.4140   -1.2600 C.3    17  LEU17       0.0001
      7  C         -7.3990    2.0370   -0.3760 C.2    17  LEU17       0.2592
      8  O         -7.4670    2.9330   -1.2040 O.2    17  LEU17      -0.2718
      9  N         -7.7380    2.2560    0.8970 N.am   18  ASP18      -0.1960
     10  CA        -8.5130    3.4280    1.3730 C.3    18  ASP18       0.1840
     11  CB        -9.0510    3.1310    2.7840 C.3    18  ASP18       0.1450
     12  CG       -10.5470    3.4340    2.8500 C.2    18  ASP18       0.3671
     13  OD1      -11.3300    2.4930    2.5610 O.co2  18  ASP18      -0.2456
     14  OD2      -10.9050    4.5930    3.1470 O.co2  18  ASP18      -0.2456
     15  C         -7.8270    4.8120    1.2910 C.2    18  ASP18       0.2622
     16  O         -8.3890    5.8210    1.7350 O.2    18  ASP18      -0.2715
     17  N         -6.6250    4.8510    0.7010 N.am   19  ILE19      -0.1963
     18  CA        -5.9180    6.0210    0.1680 C.3    19  ILE19       0.1727
     19  CB        -4.3960    5.7260    0.0740 C.3    19  ILE19       0.0290
     20  CG2       -3.6150    6.9530   -0.4300 C.3    19  ILE19       0.0023
     21  CG1       -3.7730    5.2100    1.3920 C.3    19  ILE19       0.0022
     22  CD1       -3.8620    6.1700    2.5820 C.3    19  ILE19       0.0001
     23  C         -6.4970    6.4050   -1.2110 C.2    19  ILE19       0.2616
     24  O         -7.0070    7.5130   -1.3720 O.2    19  ILE19      -0.2715
     25  N         -6.3950    5.4980   -2.1940 N.am   20  ILE20      -0.1963
     26  CA        -6.9990    5.5490   -3.5400 C.3    20  ILE20       0.1727
     27  CB        -6.0900    6.2460   -4.5940 C.3    20  ILE20       0.0290
     28  CG2       -6.7980    6.2490   -5.9680 C.3    20  ILE20       0.0023
     29  CG1       -5.7140    7.6970   -4.2070 C.3    20  ILE20       0.0022
     30  CD1       -4.7810    8.4150   -5.1910 C.3    20  ILE20       0.0001
     31  C         -7.3180    4.1070   -3.9880 C.2    20  ILE20       0.2617
     32  O         -6.4020    3.3070   -4.2100 O.2    20  ILE20      -0.2715
     33  N         -8.6100    3.8210   -4.1620 N.am   21  TRP21      -0.1938
     34  CA        -9.2240    2.5950   -4.7020 C.3    21  TRP21       0.2021
     35  CB        -9.7020    1.6830   -3.5450 C.3    21  TRP21       0.0612
     36  CG       -10.4970    2.2370   -2.3850 C.ar   21  TRP21       0.0007
     37  CD1      -10.6860    1.5470   -1.2340 C.ar   21  TRP21       0.0946
     38  NE1      -11.3350    2.3340   -0.3040 N.ar   21  TRP21      -0.2442
     39  CE2      -11.5720    3.5950   -0.7990 C.ar   21  TRP21       0.0810
     40  CZ2      -12.0950    4.7480   -0.2000 C.ar   21  TRP21       0.0191
     41  CH2      -12.2340    5.9130   -0.9670 C.ar   21  TRP21       0.0015
     42  CZ3      -11.8800    5.8920   -2.3260 C.ar   21  TRP21       0.0001
     43  CE3      -11.3480    4.7280   -2.9100 C.ar   21  TRP21       0.0012
     44  CD2      -11.1270    3.5500   -2.1550 C.ar   21  TRP21       0.0152
     45  C        -10.3230    2.8760   -5.7330 C.2    21  TRP21       0.3845
     46  O        -11.0800    1.9620   -6.0950 O.co2  21  TRP21      -0.2437
     47  OXT      -10.4270    4.0430   -6.2080 O.co2  21  TRP21      -0.2437
@<TRIPOS>BOND
     1    47    45   ar
     2    46    45   ar
     3    28    27    1
     4    45    34    1
     5    30    29    1
     6    34    33    1
     7    34    35    1
     8    27    29    1
     9    27    26    1
    10    32    31    2
    11    33    31   am
    12    31    26    1
    13    35    36    1
    14    26    25    1
    15    43    42   ar
    16    43    44   ar
    17    36    44   ar
    18    36    37   ar
    19    42    41   ar
    20    25    23   am
    21    44    39   ar
    22    24    23    2
    23     6     4    1
    24    37    38   ar
    25    23    18    1
    26     8     7    2
    27     1     2    1
    28    41    40   ar
    29    39    38   ar
    30    39    40   ar
    31     2     7    1
    32     2     3    1
    33    20    19    1
    34     7     9   am
    35     4     3    1
    36     4     5    1
    37    19    18    1
    38    19    21    1
    39    18    17    1
    40    17    15   am
    41     9    10    1
    42    15    10    1
    43    15    16    2
    44    10    11    1
    45    21    22    1
    46    13    12   ar
    47    11    12    1
    48    12    14   ar
