@<TRIPOS>MOLECULE
../1EDN/3STEPMIN_17-21_NOBACKBONE.pdb
 26 23 0 0 0
SMALL
GASTEIGER

@<TRIPOS>ATOM
      1  CB        -6.9230   -0.4370    0.2770 C.3    17  LEU17       0.0000
      2  CG        -6.4950   -1.8450   -0.1910 C.3    17  LEU17       0.0000
      3  CD1       -6.5150   -2.8060    0.9980 C.3    17  LEU17       0.0000
      4  CD2       -7.4310   -2.4140   -1.2600 C.3    17  LEU17       0.0000
      5  CB        -9.0510    3.1310    2.7840 C.3    18  ASP18       0.1258
      6  CG       -10.5470    3.4340    2.8500 C.2    18  ASP18       0.3654
      7  OD1      -11.3300    2.4930    2.5610 O.co2  18  ASP18      -0.2456
      8  OD2      -10.9050    4.5930    3.1470 O.co2  18  ASP18      -0.2456
      9  CB        -4.3960    5.7260    0.0740 C.3    19  ILE19       0.0000
     10  CG2       -3.6150    6.9530   -0.4300 C.3    19  ILE19       0.0000
     11  CG1       -3.7730    5.2100    1.3920 C.3    19  ILE19       0.0000
     12  CD1       -3.8620    6.1700    2.5820 C.3    19  ILE19       0.0000
     13  CB        -6.0900    6.2460   -4.5940 C.3    20  ILE20       0.0000
     14  CG2       -6.7980    6.2490   -5.9680 C.3    20  ILE20       0.0000
     15  CG1       -5.7140    7.6970   -4.2070 C.3    20  ILE20       0.0000
     16  CD1       -4.7810    8.4150   -5.1910 C.3    20  ILE20       0.0000
     17  CB        -9.7020    1.6830   -3.5450 C.3    21  TRP21       0.0327
     18  CG       -10.4970    2.2370   -2.3850 C.ar   21  TRP21      -0.0013
     19  CD1      -10.6860    1.5470   -1.2340 C.ar   21  TRP21       0.0946
     20  NE1      -11.3350    2.3340   -0.3040 N.ar   21  TRP21      -0.2442
     21  CE2      -11.5720    3.5950   -0.7990 C.ar   21  TRP21       0.0810
     22  CZ2      -12.0950    4.7480   -0.2000 C.ar   21  TRP21       0.0191
     23  CH2      -12.2340    5.9130   -0.9670 C.ar   21  TRP21       0.0015
     24  CZ3      -11.8800    5.8920   -2.3260 C.ar   21  TRP21       0.0001
     25  CE3      -11.3480    4.7280   -2.9100 C.ar   21  TRP21       0.0012
     26  CD2      -11.1270    3.5500   -2.1550 C.ar   21  TRP21       0.0152
@<TRIPOS>BOND
     1    14    13    1
     2    16    15    1
     3    13    15    1
     4    17    18    1
     5    25    24   ar
     6    25    26   ar
     7    18    26   ar
     8    18    19   ar
     9    24    23   ar
    10    26    21   ar
    11     4     2    1
    12    19    20   ar
    13    23    22   ar
    14    21    20   ar
    15    21    22   ar
    16    10     9    1
    17     2     1    1
    18     2     3    1
    19     9    11    1
    20    11    12    1
    21     7     6   ar
    22     5     6    1
    23     6     8   ar
@<TRIPOS>MOLECULE
*****
 29 31 0 0 0
SMALL
GASTEIGER

@<TRIPOS>ATOM
      1 BR        -10.0615    3.7764   -5.3316 Br      1  LIG11      -0.0503
      2 BR        -10.7516   10.6076    4.1187 Br      1  LIG11      -0.0472
      3 S         -15.6926    4.5452   -0.9074 S.O2    1  LIG11       0.1079
      4 O         -10.5112    4.2446    1.4410 O.3     1  LIG11      -0.4724
      5 O         -16.3501    4.1415    0.3075 O.2     1  LIG11      -0.1383
      6 O         -16.4368    4.8927   -2.0919 O.2     1  LIG11      -0.1383
      7 O          -9.8699    4.7422    4.5814 O.3     1  LIG11      -0.4590
      8 N         -14.6890    3.3005   -1.3620 N.3     1  LIG11      -0.1906
      9 N         -14.6083    5.7879   -0.6234 N.pl3   1  LIG11      -0.1891
     10 N         -14.2340    5.9243    1.6190 N.ar    1  LIG11      -0.2186
     11 N         -12.3155    5.0242    2.6757 N.ar    1  LIG11      -0.2008
     12 N          -9.3699    6.7633    3.4760 N.ar    1  LIG11      -0.2022
     13 N         -10.9007    6.6504    5.3043 N.ar    1  LIG11      -0.2022
     14 C         -12.4407    4.9835    0.2582 C.ar    1  LIG11       0.0848
     15 C         -13.6966    5.5556    0.4448 C.ar    1  LIG11       0.1532
     16 C         -11.8481    4.7014   -1.0682 C.ar    1  LIG11      -0.0094
     17 C         -11.8018    4.7327    1.4653 C.ar    1  LIG11       0.2276
     18 C         -11.8571    5.6683   -2.0923 C.ar    1  LIG11      -0.0527
     19 C         -11.2717    3.4519   -1.3650 C.ar    1  LIG11      -0.0527
     20 C         -10.1777    3.4031    2.5535 C.3     1  LIG11       0.1252
     21 C         -11.3295    5.3961   -3.3594 C.ar    1  LIG11      -0.0472
     22 C         -10.7345    3.1768   -2.6277 C.ar    1  LIG11      -0.0472
     23 C         -13.5088    5.6177    2.6934 C.ar    1  LIG11       0.1219
     24 C          -9.1945    4.0790    3.5125 C.3     1  LIG11       0.1267
     25 C         -10.7700    4.1502   -3.6204 C.ar    1  LIG11       0.0179
     26 C         -10.0522    6.0947    4.4214 C.ar    1  LIG11       0.3180
     27 C          -9.5987    8.0917    3.4086 C.ar    1  LIG11       0.0483
     28 C         -11.0904    7.9812    5.1904 C.ar    1  LIG11       0.0483
     29 C         -10.4602    8.7584    4.2479 C.ar    1  LIG11       0.0543
@<TRIPOS>BOND
     1     1    25    1
     2     2    29    1
     3     3     9    1
     4     3     8    1
     5     3     6    2
     6     3     5    2
     7     4    17    1
     8     4    20    1
     9     7    24    1
    10     7    26    1
    11     9    15    1
    12    10    15   ar
    13    10    23   ar
    14    11    17   ar
    15    11    23   ar
    16    12    26   ar
    17    12    27   ar
    18    13    26   ar
    19    13    28   ar
    20    14    15   ar
    21    14    17   ar
    22    16    18   ar
    23    16    19   ar
    24    16    14    1
    25    18    21   ar
    26    19    22   ar
    27    20    24    1
    28    21    25   ar
    29    22    25   ar
    30    27    29   ar
    31    28    29   ar
@<TRIPOS>MOLECULE
../1EDN/3STEPMIN_17-21.pdb
 47 48 0 0 0
SMALL
GASTEIGER

@<TRIPOS>ATOM
      1  N         -5.4290    0.8830   -1.1740 N.3    17  LEU17      -0.1231
      2  CA        -6.8230    0.6710   -0.7980 C.3    17  LEU17       0.1693
      3  CB        -6.9230   -0.4370    0.2770 C.3    17  LEU17       0.0284
      4  CG        -6.4950   -1.8450   -0.1910 C.3    17  LEU17       0.0019
      5  CD1       -6.5150   -2.8060    0.9980 C.3    17  LEU17       0.0001
      6  CD2       -7.4310   -2.4140   -1.2600 C.3    17  LEU17       0.0001
      7  C         -7.3990    2.0370   -0.3760 C.2    17  LEU17       0.2592
      8  O         -7.4670    2.9330   -1.2040 O.2    17  LEU17      -0.2718
      9  N         -7.7380    2.2560    0.8970 N.am   18  ASP18      -0.1960
     10  CA        -8.5130    3.4280    1.3730 C.3    18  ASP18       0.1840
     11  CB        -9.0510    3.1310    2.7840 C.3    18  ASP18       0.1450
     12  CG       -10.5470    3.4340    2.8500 C.2    18  ASP18       0.3671
     13  OD1      -11.3300    2.4930    2.5610 O.co2  18  ASP18      -0.2456
     14  OD2      -10.9050    4.5930    3.1470 O.co2  18  ASP18      -0.2456
     15  C         -7.8270    4.8120    1.2910 C.2    18  ASP18       0.2622
     16  O         -8.3890    5.8210    1.7350 O.2    18  ASP18      -0.2715
     17  N         -6.6250    4.8510    0.7010 N.am   19  ILE19      -0.1963
     18  CA        -5.9180    6.0210    0.1680 C.3    19  ILE19       0.1727
     19  CB        -4.3960    5.7260    0.0740 C.3    19  ILE19       0.0290
     20  CG2       -3.6150    6.9530   -0.4300 C.3    19  ILE19       0.0023
     21  CG1       -3.7730    5.2100    1.3920 C.3    19  ILE19       0.0022
     22  CD1       -3.8620    6.1700    2.5820 C.3    19  ILE19       0.0001
     23  C         -6.4970    6.4050   -1.2110 C.2    19  ILE19       0.2616
     24  O         -7.0070    7.5130   -1.3720 O.2    19  ILE19      -0.2715
     25  N         -6.3950    5.4980   -2.1940 N.am   20  ILE20      -0.1963
     26  CA        -6.9990    5.5490   -3.5400 C.3    20  ILE20       0.1727
     27  CB        -6.0900    6.2460   -4.5940 C.3    20  ILE20       0.0290
     28  CG2       -6.7980    6.2490   -5.9680 C.3    20  ILE20       0.0023
     29  CG1       -5.7140    7.6970   -4.2070 C.3    20  ILE20       0.0022
     30  CD1       -4.7810    8.4150   -5.1910 C.3    20  ILE20       0.0001
     31  C         -7.3180    4.1070   -3.9880 C.2    20  ILE20       0.2617
     32  O         -6.4020    3.3070   -4.2100 O.2    20  ILE20      -0.2715
     33  N         -8.6100    3.8210   -4.1620 N.am   21  TRP21      -0.1938
     34  CA        -9.2240    2.5950   -4.7020 C.3    21  TRP21       0.2021
     35  CB        -9.7020    1.6830   -3.5450 C.3    21  TRP21       0.0612
     36  CG       -10.4970    2.2370   -2.3850 C.ar   21  TRP21       0.0007
     37  CD1      -10.6860    1.5470   -1.2340 C.ar   21  TRP21       0.0946
     38  NE1      -11.3350    2.3340   -0.3040 N.ar   21  TRP21      -0.2442
     39  CE2      -11.5720    3.5950   -0.7990 C.ar   21  TRP21       0.0810
     40  CZ2      -12.0950    4.7480   -0.2000 C.ar   21  TRP21       0.0191
     41  CH2      -12.2340    5.9130   -0.9670 C.ar   21  TRP21       0.0015
     42  CZ3      -11.8800    5.8920   -2.3260 C.ar   21  TRP21       0.0001
     43  CE3      -11.3480    4.7280   -2.9100 C.ar   21  TRP21       0.0012
     44  CD2      -11.1270    3.5500   -2.1550 C.ar   21  TRP21       0.0152
     45  C        -10.3230    2.8760   -5.7330 C.2    21  TRP21       0.3845
     46  O        -11.0800    1.9620   -6.0950 O.co2  21  TRP21      -0.2437
     47  OXT      -10.4270    4.0430   -6.2080 O.co2  21  TRP21      -0.2437
@<TRIPOS>BOND
     1    47    45   ar
     2    46    45   ar
     3    28    27    1
     4    45    34    1
     5    30    29    1
     6    34    33    1
     7    34    35    1
     8    27    29    1
     9    27    26    1
    10    32    31    2
    11    33    31   am
    12    31    26    1
    13    35    36    1
    14    26    25    1
    15    43    42   ar
    16    43    44   ar
    17    36    44   ar
    18    36    37   ar
    19    42    41   ar
    20    25    23   am
    21    44    39   ar
    22    24    23    2
    23     6     4    1
    24    37    38   ar
    25    23    18    1
    26     8     7    2
    27     1     2    1
    28    41    40   ar
    29    39    38   ar
    30    39    40   ar
    31     2     7    1
    32     2     3    1
    33    20    19    1
    34     7     9   am
    35     4     3    1
    36     4     5    1
    37    19    18    1
    38    19    21    1
    39    18    17    1
    40    17    15   am
    41     9    10    1
    42    15    10    1
    43    15    16    2
    44    10    11    1
    45    21    22    1
    46    13    12   ar
    47    11    12    1
    48    12    14   ar
