@<TRIPOS>MOLECULE
../1EDN/3STEPMIN_17-21_NOBACKBONE.pdb
 26 23 0 0 0
SMALL
GASTEIGER

@<TRIPOS>ATOM
      1  CB        -6.9230   -0.4370    0.2770 C.3    17  LEU17       0.0000
      2  CG        -6.4950   -1.8450   -0.1910 C.3    17  LEU17       0.0000
      3  CD1       -6.5150   -2.8060    0.9980 C.3    17  LEU17       0.0000
      4  CD2       -7.4310   -2.4140   -1.2600 C.3    17  LEU17       0.0000
      5  CB        -9.0510    3.1310    2.7840 C.3    18  ASP18       0.1258
      6  CG       -10.5470    3.4340    2.8500 C.2    18  ASP18       0.3654
      7  OD1      -11.3300    2.4930    2.5610 O.co2  18  ASP18      -0.2456
      8  OD2      -10.9050    4.5930    3.1470 O.co2  18  ASP18      -0.2456
      9  CB        -4.3960    5.7260    0.0740 C.3    19  ILE19       0.0000
     10  CG2       -3.6150    6.9530   -0.4300 C.3    19  ILE19       0.0000
     11  CG1       -3.7730    5.2100    1.3920 C.3    19  ILE19       0.0000
     12  CD1       -3.8620    6.1700    2.5820 C.3    19  ILE19       0.0000
     13  CB        -6.0900    6.2460   -4.5940 C.3    20  ILE20       0.0000
     14  CG2       -6.7980    6.2490   -5.9680 C.3    20  ILE20       0.0000
     15  CG1       -5.7140    7.6970   -4.2070 C.3    20  ILE20       0.0000
     16  CD1       -4.7810    8.4150   -5.1910 C.3    20  ILE20       0.0000
     17  CB        -9.7020    1.6830   -3.5450 C.3    21  TRP21       0.0327
     18  CG       -10.4970    2.2370   -2.3850 C.ar   21  TRP21      -0.0013
     19  CD1      -10.6860    1.5470   -1.2340 C.ar   21  TRP21       0.0946
     20  NE1      -11.3350    2.3340   -0.3040 N.ar   21  TRP21      -0.2442
     21  CE2      -11.5720    3.5950   -0.7990 C.ar   21  TRP21       0.0810
     22  CZ2      -12.0950    4.7480   -0.2000 C.ar   21  TRP21       0.0191
     23  CH2      -12.2340    5.9130   -0.9670 C.ar   21  TRP21       0.0015
     24  CZ3      -11.8800    5.8920   -2.3260 C.ar   21  TRP21       0.0001
     25  CE3      -11.3480    4.7280   -2.9100 C.ar   21  TRP21       0.0012
     26  CD2      -11.1270    3.5500   -2.1550 C.ar   21  TRP21       0.0152
@<TRIPOS>BOND
     1    14    13    1
     2    16    15    1
     3    13    15    1
     4    17    18    1
     5    25    24   ar
     6    25    26   ar
     7    18    26   ar
     8    18    19   ar
     9    24    23   ar
    10    26    21   ar
    11     4     2    1
    12    19    20   ar
    13    23    22   ar
    14    21    20   ar
    15    21    22   ar
    16    10     9    1
    17     2     1    1
    18     2     3    1
    19     9    11    1
    20    11    12    1
    21     7     6   ar
    22     5     6    1
    23     6     8   ar
@<TRIPOS>MOLECULE
123882
 66 71 0 0 0
SMALL
GASTEIGER

@<TRIPOS>ATOM
      1 S          -2.9645    5.6983   -5.7921 S.2     3  UNK33      -0.0993
      2 O          -8.9442   -1.9628    2.0596 O.2     1  UNK11      -0.2755
      3 O          -5.8246    7.4051    0.9289 O.2     4  LEU44      -0.2738
      4 O          -7.2799   -0.6715   -2.3133 O.2     1  UNK11      -0.2737
      5 O          -7.1434    3.6868   -0.6719 O.2     5  TRP55      -0.2738
      6 O          -9.5992    1.4545    0.0859 O.2     6  ASP66      -0.2738
      7 O          -4.0396    6.4828   -3.1154 O.2     3  UNK33      -0.2734
      8 O          -3.3791    2.4101   -1.2375 O.2     2  ASP22      -0.2737
      9 OD1        -9.1443    5.0325    3.4214 O.co2   6  ASP66      -0.5497
     10 OD2        -8.6967    3.5061    5.0633 O.co2   6  ASP66      -0.5497
     11 OD1        -1.7042   -0.7974   -1.5037 O.co2   2  ASP22      -0.5497
     12 OD2        -3.5426   -0.7658   -0.1383 O.co2   2  ASP22      -0.5497
     13 N          -7.1409   -3.2105    2.6965 N.am    1  UNK11      -0.2984
     14 N          -6.8630   -6.0044    3.4016 N.pl3   1  UNK11      -0.3269
     15 N          -7.6009    0.7021    0.9307 N.am    1  UNK11      -0.3020
     16 N          -6.5114    6.2005   -0.8872 N.am    5  TRP55      -0.3022
     17 N          -4.1003    5.0871   -1.3321 N.am    4  LEU44      -0.3022
     18 N          -8.7154    4.1086    0.9465 N.am    6  ASP66      -0.3021
     19 N          -5.6992    0.4923   -1.1272 N.am    2  ASP22      -0.3021
     20 N          -4.3511    2.8951   -3.2266 N.am    3  UNK33      -0.2984
     21 NE1       -12.3693    6.5396   -0.6059 N.ar    5  TRP55      -0.3604
     22 C          -5.9407   -3.9498    2.2844 C.3     1  UNK11       0.0304
     23 C          -7.8433   -3.7343    3.8684 C.3     1  UNK11       0.0304
     24 C          -5.6541   -5.1775    3.1711 C.3     1  UNK11       0.0280
     25 C          -8.1024   -5.2411    3.7287 C.3     1  UNK11       0.0280
     26 C          -7.7663   -2.2709    1.8858 C.2     1  UNK11       0.2179
     27 C          -6.9094   -1.6666    0.7857 C.3     1  UNK11       0.0510
     28 C          -7.6035   -0.4968    0.0918 C.3     1  UNK11       0.1076
     29 CA         -4.1215    6.1415   -0.2994 C.3     4  LEU44       0.0997
     30 CB         -3.4309    5.5709    0.9549 C.3     4  LEU44      -0.0236
     31 CA         -7.8990    5.9740   -0.4576 C.3     5  TRP55       0.1034
     32 C          -7.1051   -7.1478    2.6309 C.ar    1  UNK11       0.0298
     33 CG         -3.1018    6.5467    2.1001 C.3     4  LEU44      -0.0446
     34 CB         -8.8439    6.2545   -1.6259 C.3     5  TRP55       0.0013
     35 C          -5.5606    6.6347    0.0103 C.2     4  LEU44       0.2340
     36 CA         -8.4219    2.8878    1.6929 C.3     6  ASP66       0.1045
     37 C          -6.8875   -0.2030   -1.2429 C.2     1  UNK11       0.2344
     38 CG        -10.2991    6.1162   -1.3128 C.ar    5  TRP55      -0.0201
     39 C          -7.8840    4.4801   -0.0796 C.2     5  TRP55       0.2343
     40 C          -8.6184    1.6362    0.8057 C.2     6  ASP66       0.2343
     41 CA         -4.8240    0.6922   -2.2659 C.3     2  ASP22       0.1045
     42 CD2        -2.2858    7.7517    1.6371 C.3     4  LEU44      -0.0626
     43 CD1        -2.3389    5.7967    3.1990 C.3     4  LEU44      -0.0626
     44 C          -3.5385    4.0759   -3.5202 C.3     3  UNK33       0.1311
     45 C          -8.0265   -8.1086    3.0875 C.ar    1  UNK11      -0.0407
     46 C          -6.4842   -7.3992    1.4006 C.ar    1  UNK11      -0.0407
     47 CD2       -11.1219    4.9736   -1.5783 C.ar    5  TRP55       0.0029
     48 C          -3.9656    5.3331   -2.6869 C.2     3  UNK33       0.2390
     49 CB         -9.3119    2.7377    2.9221 C.3     6  ASP66       0.0138
     50 CD1       -11.1103    7.0645   -0.7211 C.ar    5  TRP55       0.0060
     51 CE2       -12.4130    5.2758   -1.1461 C.ar    5  TRP55       0.0467
     52 C          -4.0995    2.0519   -2.1654 C.2     2  ASP22       0.2345
     53 CB         -3.8223   -0.4386   -2.4616 C.3     2  ASP22       0.0138
     54 C          -8.3295   -9.2545    2.3456 C.ar    1  UNK11      -0.0600
     55 C          -6.7875   -8.5413    0.6482 C.ar    1  UNK11      -0.0600
     56 C          -3.5467    4.2631   -5.0381 C.ar    3  UNK33       0.0189
     57 CE3       -10.8800    3.7012   -2.1287 C.ar    5  TRP55      -0.0523
     58 C          -7.7115   -9.4681    1.1196 C.ar    1  UNK11      -0.0616
     59 CZ2       -13.4787    4.3729   -1.2537 C.ar    5  TRP55      -0.0378
     60 CG         -9.0162    3.8646    3.8970 C.2     6  ASP66       0.0440
     61 CZ3       -11.9289    2.7810   -2.2318 C.ar    5  TRP55      -0.0611
     62 C          -3.8570    3.3188   -6.0121 C.ar    3  UNK33      -0.0493
     63 CH2       -13.2103    3.1162   -1.8061 C.ar    5  TRP55      -0.0598
     64 CG         -2.9330   -0.6649   -1.2444 C.2     2  ASP22       0.0440
     65 C          -3.7264    3.8107   -7.3418 C.ar    3  UNK33      -0.0544
     66 C          -3.2825    5.1101   -7.3611 C.ar    3  UNK33      -0.0240
@<TRIPOS>BOND
     1     1    56   ar
     2     1    66   ar
     3     2    26    2
     4     3    35    2
     5     4    37    2
     6     5    39    2
     7     6    40    2
     8     7    48    2
     9     8    52    2
    10     9    60   ar
    11    10    60   ar
    12    11    64   ar
    13    12    64   ar
    14    13    22    1
    15    13    23    1
    16    14    24    1
    17    14    25    1
    18    14    32    1
    19    15    28    1
    20    15    40   am
    21    16    35   am
    22    16    31    1
    23    17    48   am
    24    17    29    1
    25    18    39   am
    26    18    36    1
    27    19    37   am
    28    19    41    1
    29    20    52   am
    30    20    44    1
    31    21    50   ar
    32    21    51   ar
    33    22    24    1
    34    23    25    1
    35    26    27    1
    36    26    13   am
    37    28    37    1
    38    28    27    1
    39    29    35    1
    40    29    30    1
    41    30    33    1
    42    31    39    1
    43    31    34    1
    44    32    45   ar
    45    32    46   ar
    46    33    43    1
    47    33    42    1
    48    34    38    1
    49    36    40    1
    50    36    49    1
    51    38    47   ar
    52    38    50   ar
    53    41    52    1
    54    41    53    1
    55    44    48    1
    56    44    56    1
    57    45    54   ar
    58    46    55   ar
    59    47    57   ar
    60    47    51   ar
    61    49    60    1
    62    51    59   ar
    63    53    64    1
    64    54    58   ar
    65    55    58   ar
    66    56    62   ar
    67    57    61   ar
    68    59    63   ar
    69    61    63   ar
    70    62    65   ar
    71    65    66   ar
@<TRIPOS>MOLECULE
../1EDN/3STEPMIN_17-21.pdb
 47 48 0 0 0
SMALL
GASTEIGER

@<TRIPOS>ATOM
      1  N         -5.4290    0.8830   -1.1740 N.3    17  LEU17      -0.1231
      2  CA        -6.8230    0.6710   -0.7980 C.3    17  LEU17       0.1693
      3  CB        -6.9230   -0.4370    0.2770 C.3    17  LEU17       0.0284
      4  CG        -6.4950   -1.8450   -0.1910 C.3    17  LEU17       0.0019
      5  CD1       -6.5150   -2.8060    0.9980 C.3    17  LEU17       0.0001
      6  CD2       -7.4310   -2.4140   -1.2600 C.3    17  LEU17       0.0001
      7  C         -7.3990    2.0370   -0.3760 C.2    17  LEU17       0.2592
      8  O         -7.4670    2.9330   -1.2040 O.2    17  LEU17      -0.2718
      9  N         -7.7380    2.2560    0.8970 N.am   18  ASP18      -0.1960
     10  CA        -8.5130    3.4280    1.3730 C.3    18  ASP18       0.1840
     11  CB        -9.0510    3.1310    2.7840 C.3    18  ASP18       0.1450
     12  CG       -10.5470    3.4340    2.8500 C.2    18  ASP18       0.3671
     13  OD1      -11.3300    2.4930    2.5610 O.co2  18  ASP18      -0.2456
     14  OD2      -10.9050    4.5930    3.1470 O.co2  18  ASP18      -0.2456
     15  C         -7.8270    4.8120    1.2910 C.2    18  ASP18       0.2622
     16  O         -8.3890    5.8210    1.7350 O.2    18  ASP18      -0.2715
     17  N         -6.6250    4.8510    0.7010 N.am   19  ILE19      -0.1963
     18  CA        -5.9180    6.0210    0.1680 C.3    19  ILE19       0.1727
     19  CB        -4.3960    5.7260    0.0740 C.3    19  ILE19       0.0290
     20  CG2       -3.6150    6.9530   -0.4300 C.3    19  ILE19       0.0023
     21  CG1       -3.7730    5.2100    1.3920 C.3    19  ILE19       0.0022
     22  CD1       -3.8620    6.1700    2.5820 C.3    19  ILE19       0.0001
     23  C         -6.4970    6.4050   -1.2110 C.2    19  ILE19       0.2616
     24  O         -7.0070    7.5130   -1.3720 O.2    19  ILE19      -0.2715
     25  N         -6.3950    5.4980   -2.1940 N.am   20  ILE20      -0.1963
     26  CA        -6.9990    5.5490   -3.5400 C.3    20  ILE20       0.1727
     27  CB        -6.0900    6.2460   -4.5940 C.3    20  ILE20       0.0290
     28  CG2       -6.7980    6.2490   -5.9680 C.3    20  ILE20       0.0023
     29  CG1       -5.7140    7.6970   -4.2070 C.3    20  ILE20       0.0022
     30  CD1       -4.7810    8.4150   -5.1910 C.3    20  ILE20       0.0001
     31  C         -7.3180    4.1070   -3.9880 C.2    20  ILE20       0.2617
     32  O         -6.4020    3.3070   -4.2100 O.2    20  ILE20      -0.2715
     33  N         -8.6100    3.8210   -4.1620 N.am   21  TRP21      -0.1938
     34  CA        -9.2240    2.5950   -4.7020 C.3    21  TRP21       0.2021
     35  CB        -9.7020    1.6830   -3.5450 C.3    21  TRP21       0.0612
     36  CG       -10.4970    2.2370   -2.3850 C.ar   21  TRP21       0.0007
     37  CD1      -10.6860    1.5470   -1.2340 C.ar   21  TRP21       0.0946
     38  NE1      -11.3350    2.3340   -0.3040 N.ar   21  TRP21      -0.2442
     39  CE2      -11.5720    3.5950   -0.7990 C.ar   21  TRP21       0.0810
     40  CZ2      -12.0950    4.7480   -0.2000 C.ar   21  TRP21       0.0191
     41  CH2      -12.2340    5.9130   -0.9670 C.ar   21  TRP21       0.0015
     42  CZ3      -11.8800    5.8920   -2.3260 C.ar   21  TRP21       0.0001
     43  CE3      -11.3480    4.7280   -2.9100 C.ar   21  TRP21       0.0012
     44  CD2      -11.1270    3.5500   -2.1550 C.ar   21  TRP21       0.0152
     45  C        -10.3230    2.8760   -5.7330 C.2    21  TRP21       0.3845
     46  O        -11.0800    1.9620   -6.0950 O.co2  21  TRP21      -0.2437
     47  OXT      -10.4270    4.0430   -6.2080 O.co2  21  TRP21      -0.2437
@<TRIPOS>BOND
     1    47    45   ar
     2    46    45   ar
     3    28    27    1
     4    45    34    1
     5    30    29    1
     6    34    33    1
     7    34    35    1
     8    27    29    1
     9    27    26    1
    10    32    31    2
    11    33    31   am
    12    31    26    1
    13    35    36    1
    14    26    25    1
    15    43    42   ar
    16    43    44   ar
    17    36    44   ar
    18    36    37   ar
    19    42    41   ar
    20    25    23   am
    21    44    39   ar
    22    24    23    2
    23     6     4    1
    24    37    38   ar
    25    23    18    1
    26     8     7    2
    27     1     2    1
    28    41    40   ar
    29    39    38   ar
    30    39    40   ar
    31     2     7    1
    32     2     3    1
    33    20    19    1
    34     7     9   am
    35     4     3    1
    36     4     5    1
    37    19    18    1
    38    19    21    1
    39    18    17    1
    40    17    15   am
    41     9    10    1
    42    15    10    1
    43    15    16    2
    44    10    11    1
    45    21    22    1
    46    13    12   ar
    47    11    12    1
    48    12    14   ar
