@<TRIPOS>MOLECULE
../1EDN/3STEPMIN_17-21_NOBACKBONE.pdb
 26 23 0 0 0
SMALL
GASTEIGER

@<TRIPOS>ATOM
      1  CB        -6.9230   -0.4370    0.2770 C.3    17  LEU17       0.0000
      2  CG        -6.4950   -1.8450   -0.1910 C.3    17  LEU17       0.0000
      3  CD1       -6.5150   -2.8060    0.9980 C.3    17  LEU17       0.0000
      4  CD2       -7.4310   -2.4140   -1.2600 C.3    17  LEU17       0.0000
      5  CB        -9.0510    3.1310    2.7840 C.3    18  ASP18       0.1258
      6  CG       -10.5470    3.4340    2.8500 C.2    18  ASP18       0.3654
      7  OD1      -11.3300    2.4930    2.5610 O.co2  18  ASP18      -0.2456
      8  OD2      -10.9050    4.5930    3.1470 O.co2  18  ASP18      -0.2456
      9  CB        -4.3960    5.7260    0.0740 C.3    19  ILE19       0.0000
     10  CG2       -3.6150    6.9530   -0.4300 C.3    19  ILE19       0.0000
     11  CG1       -3.7730    5.2100    1.3920 C.3    19  ILE19       0.0000
     12  CD1       -3.8620    6.1700    2.5820 C.3    19  ILE19       0.0000
     13  CB        -6.0900    6.2460   -4.5940 C.3    20  ILE20       0.0000
     14  CG2       -6.7980    6.2490   -5.9680 C.3    20  ILE20       0.0000
     15  CG1       -5.7140    7.6970   -4.2070 C.3    20  ILE20       0.0000
     16  CD1       -4.7810    8.4150   -5.1910 C.3    20  ILE20       0.0000
     17  CB        -9.7020    1.6830   -3.5450 C.3    21  TRP21       0.0327
     18  CG       -10.4970    2.2370   -2.3850 C.ar   21  TRP21      -0.0013
     19  CD1      -10.6860    1.5470   -1.2340 C.ar   21  TRP21       0.0946
     20  NE1      -11.3350    2.3340   -0.3040 N.ar   21  TRP21      -0.2442
     21  CE2      -11.5720    3.5950   -0.7990 C.ar   21  TRP21       0.0810
     22  CZ2      -12.0950    4.7480   -0.2000 C.ar   21  TRP21       0.0191
     23  CH2      -12.2340    5.9130   -0.9670 C.ar   21  TRP21       0.0015
     24  CZ3      -11.8800    5.8920   -2.3260 C.ar   21  TRP21       0.0001
     25  CE3      -11.3480    4.7280   -2.9100 C.ar   21  TRP21       0.0012
     26  CD2      -11.1270    3.5500   -2.1550 C.ar   21  TRP21       0.0152
@<TRIPOS>BOND
     1    14    13    1
     2    16    15    1
     3    13    15    1
     4    17    18    1
     5    25    24   ar
     6    25    26   ar
     7    18    26   ar
     8    18    19   ar
     9    24    23   ar
    10    26    21   ar
    11     4     2    1
    12    19    20   ar
    13    23    22   ar
    14    21    20   ar
    15    21    22   ar
    16    10     9    1
    17     2     1    1
    18     2     3    1
    19     9    11    1
    20    11    12    1
    21     7     6   ar
    22     5     6    1
    23     6     8   ar
@<TRIPOS>MOLECULE
9911482
 51 53 0 0 0
SMALL
GASTEIGER

@<TRIPOS>ATOM
      1 S         -10.2162    1.7291    1.1736 S.O2    1  LIG11       0.0758
      2 S          -9.6149    5.3615    3.3317 S.2     1  LIG11      -0.0902
      3 O         -11.8142    4.2051   -0.3034 O.2     1  LIG11      -0.3377
      4 O          -8.8949    1.6069    0.6051 O.2     1  LIG11      -0.1499
      5 O         -10.6985    0.6821    2.0581 O.2     1  LIG11      -0.1499
      6 O          -8.6774    4.2200   -0.2407 O.2     1  LIG11      -0.2692
      7 O          -5.4898    4.9715    2.7179 O.2     1  LIG11      -0.2923
      8 N          -7.5098    5.5249    1.2417 N.am    1  LIG11      -0.2802
      9 N         -11.3444    1.8045   -0.0782 N.pl3   1  LIG11      -0.1831
     10 N         -11.7116    5.1881   -1.2710 N.ar    1  LIG11      -0.0810
     11 C          -6.5822    6.0345    0.3000 C.ar    1  LIG11       0.0471
     12 C         -10.1872    3.1347    2.1887 C.ar    1  LIG11       0.1277
     13 C          -7.0160    6.7413   -0.8424 C.ar    1  LIG11      -0.0283
     14 C          -5.1958    5.8737    0.5400 C.ar    1  LIG11       0.0388
     15 C          -9.4040    4.2654    2.0125 C.ar    1  LIG11       0.1007
     16 C          -4.6953    6.9772   -1.5780 C.ar    1  LIG11      -0.0494
     17 C          -6.0608    7.1906   -1.7732 C.ar    1  LIG11      -0.0541
     18 C          -4.2699    6.3295   -0.4135 C.ar    1  LIG11      -0.0466
     19 C          -8.5308    4.6454    0.9028 C.2     1  LIG11       0.2568
     20 C         -11.3464    3.0265   -0.7964 C.ar    1  LIG11       0.2399
     21 C         -10.9690    3.1968    3.3931 C.ar    1  LIG11      -0.0273
     22 C         -10.9335    3.2030   -2.0986 C.ar    1  LIG11       0.0350
     23 C          -8.4333    7.2078   -1.0597 C.3     1  LIG11      -0.0379
     24 C          -4.7060    5.2145    1.7990 C.2     1  LIG11       0.1619
     25 C         -11.1513    4.5904   -2.3295 C.ar    1  LIG11       0.0854
     26 C         -10.7445    4.3498    4.1056 C.ar    1  LIG11      -0.0217
     27 C          -3.6907    7.4480   -2.5889 C.3     1  LIG11      -0.0397
     28 C         -10.2943    2.2371   -3.0199 C.3     1  LIG11      -0.0330
     29 C         -10.7991    5.3751   -3.5357 C.3     1  LIG11      -0.0188
     30 C          -3.2413    4.8893    1.9404 C.3     1  LIG11      -0.0013
     31 H          -7.1312    5.3440    2.1750 H       1  LIG11       0.1552
     32 H         -11.1737    0.9932   -0.6687 H       1  LIG11       0.1768
     33 H          -6.3965    7.7402   -2.6520 H       1  LIG11       0.0623
     34 H          -3.2009    6.1976   -0.2676 H       1  LIG11       0.0628
     35 H         -11.6417    2.4160    3.7297 H       1  LIG11       0.0643
     36 H          -9.1747    6.6945   -0.4486 H       1  LIG11       0.0278
     37 H          -8.5005    8.2739   -0.8161 H       1  LIG11       0.0278
     38 H          -8.7211    7.0720   -2.1068 H       1  LIG11       0.0278
     39 H         -11.1850    4.6414    5.0490 H       1  LIG11       0.0694
     40 H          -4.1663    8.0193   -3.3929 H       1  LIG11       0.0278
     41 H          -2.9499    8.0981   -2.1124 H       1  LIG11       0.0278
     42 H          -3.1814    6.5899   -3.0392 H       1  LIG11       0.0278
     43 H         -10.4117    1.2034   -2.6819 H       1  LIG11       0.0280
     44 H         -10.7303    2.3093   -4.0211 H       1  LIG11       0.0280
     45 H          -9.2216    2.4448   -3.0961 H       1  LIG11       0.0280
     46 H         -11.0805    6.4280   -3.4326 H       1  LIG11       0.0294
     47 H          -9.7188    5.3314   -3.7113 H       1  LIG11       0.0294
     48 H         -11.3055    4.9720   -4.4182 H       1  LIG11       0.0294
     49 H          -3.0907    4.3025    2.8518 H       1  LIG11       0.0309
     50 H          -2.8974    4.2854    1.0966 H       1  LIG11       0.0309
     51 H          -2.6599    5.8109    2.0271 H       1  LIG11       0.0309
@<TRIPOS>BOND
     1     1     4    2
     2     1     5    2
     3     1     9    1
     4     1    12    1
     5     2    15   ar
     6     2    26   ar
     7     3    10   ar
     8     3    20   ar
     9     6    19    2
    10     7    24    2
    11     8    11    1
    12     8    19   am
    13     9    20    1
    14    10    25   ar
    15    11    13   ar
    16    11    14   ar
    17    12    15   ar
    18    12    21   ar
    19    13    17   ar
    20    13    23    1
    21    14    18   ar
    22    14    24    1
    23    15    19    1
    24    16    17   ar
    25    16    18   ar
    26    16    27    1
    27    20    22   ar
    28    21    26   ar
    29    22    25   ar
    30    22    28    1
    31    24    30    1
    32    25    29    1
    33     8    31    1
    34     9    32    1
    35    17    33    1
    36    18    34    1
    37    21    35    1
    38    23    36    1
    39    23    37    1
    40    23    38    1
    41    26    39    1
    42    27    40    1
    43    27    41    1
    44    27    42    1
    45    28    43    1
    46    28    44    1
    47    28    45    1
    48    29    46    1
    49    29    47    1
    50    29    48    1
    51    30    49    1
    52    30    50    1
    53    30    51    1
@<TRIPOS>MOLECULE
../1EDN/3STEPMIN_17-21.pdb
 47 48 0 0 0
SMALL
GASTEIGER

@<TRIPOS>ATOM
      1  N         -5.4290    0.8830   -1.1740 N.3    17  LEU17      -0.1231
      2  CA        -6.8230    0.6710   -0.7980 C.3    17  LEU17       0.1693
      3  CB        -6.9230   -0.4370    0.2770 C.3    17  LEU17       0.0284
      4  CG        -6.4950   -1.8450   -0.1910 C.3    17  LEU17       0.0019
      5  CD1       -6.5150   -2.8060    0.9980 C.3    17  LEU17       0.0001
      6  CD2       -7.4310   -2.4140   -1.2600 C.3    17  LEU17       0.0001
      7  C         -7.3990    2.0370   -0.3760 C.2    17  LEU17       0.2592
      8  O         -7.4670    2.9330   -1.2040 O.2    17  LEU17      -0.2718
      9  N         -7.7380    2.2560    0.8970 N.am   18  ASP18      -0.1960
     10  CA        -8.5130    3.4280    1.3730 C.3    18  ASP18       0.1840
     11  CB        -9.0510    3.1310    2.7840 C.3    18  ASP18       0.1450
     12  CG       -10.5470    3.4340    2.8500 C.2    18  ASP18       0.3671
     13  OD1      -11.3300    2.4930    2.5610 O.co2  18  ASP18      -0.2456
     14  OD2      -10.9050    4.5930    3.1470 O.co2  18  ASP18      -0.2456
     15  C         -7.8270    4.8120    1.2910 C.2    18  ASP18       0.2622
     16  O         -8.3890    5.8210    1.7350 O.2    18  ASP18      -0.2715
     17  N         -6.6250    4.8510    0.7010 N.am   19  ILE19      -0.1963
     18  CA        -5.9180    6.0210    0.1680 C.3    19  ILE19       0.1727
     19  CB        -4.3960    5.7260    0.0740 C.3    19  ILE19       0.0290
     20  CG2       -3.6150    6.9530   -0.4300 C.3    19  ILE19       0.0023
     21  CG1       -3.7730    5.2100    1.3920 C.3    19  ILE19       0.0022
     22  CD1       -3.8620    6.1700    2.5820 C.3    19  ILE19       0.0001
     23  C         -6.4970    6.4050   -1.2110 C.2    19  ILE19       0.2616
     24  O         -7.0070    7.5130   -1.3720 O.2    19  ILE19      -0.2715
     25  N         -6.3950    5.4980   -2.1940 N.am   20  ILE20      -0.1963
     26  CA        -6.9990    5.5490   -3.5400 C.3    20  ILE20       0.1727
     27  CB        -6.0900    6.2460   -4.5940 C.3    20  ILE20       0.0290
     28  CG2       -6.7980    6.2490   -5.9680 C.3    20  ILE20       0.0023
     29  CG1       -5.7140    7.6970   -4.2070 C.3    20  ILE20       0.0022
     30  CD1       -4.7810    8.4150   -5.1910 C.3    20  ILE20       0.0001
     31  C         -7.3180    4.1070   -3.9880 C.2    20  ILE20       0.2617
     32  O         -6.4020    3.3070   -4.2100 O.2    20  ILE20      -0.2715
     33  N         -8.6100    3.8210   -4.1620 N.am   21  TRP21      -0.1938
     34  CA        -9.2240    2.5950   -4.7020 C.3    21  TRP21       0.2021
     35  CB        -9.7020    1.6830   -3.5450 C.3    21  TRP21       0.0612
     36  CG       -10.4970    2.2370   -2.3850 C.ar   21  TRP21       0.0007
     37  CD1      -10.6860    1.5470   -1.2340 C.ar   21  TRP21       0.0946
     38  NE1      -11.3350    2.3340   -0.3040 N.ar   21  TRP21      -0.2442
     39  CE2      -11.5720    3.5950   -0.7990 C.ar   21  TRP21       0.0810
     40  CZ2      -12.0950    4.7480   -0.2000 C.ar   21  TRP21       0.0191
     41  CH2      -12.2340    5.9130   -0.9670 C.ar   21  TRP21       0.0015
     42  CZ3      -11.8800    5.8920   -2.3260 C.ar   21  TRP21       0.0001
     43  CE3      -11.3480    4.7280   -2.9100 C.ar   21  TRP21       0.0012
     44  CD2      -11.1270    3.5500   -2.1550 C.ar   21  TRP21       0.0152
     45  C        -10.3230    2.8760   -5.7330 C.2    21  TRP21       0.3845
     46  O        -11.0800    1.9620   -6.0950 O.co2  21  TRP21      -0.2437
     47  OXT      -10.4270    4.0430   -6.2080 O.co2  21  TRP21      -0.2437
@<TRIPOS>BOND
     1    47    45   ar
     2    46    45   ar
     3    28    27    1
     4    45    34    1
     5    30    29    1
     6    34    33    1
     7    34    35    1
     8    27    29    1
     9    27    26    1
    10    32    31    2
    11    33    31   am
    12    31    26    1
    13    35    36    1
    14    26    25    1
    15    43    42   ar
    16    43    44   ar
    17    36    44   ar
    18    36    37   ar
    19    42    41   ar
    20    25    23   am
    21    44    39   ar
    22    24    23    2
    23     6     4    1
    24    37    38   ar
    25    23    18    1
    26     8     7    2
    27     1     2    1
    28    41    40   ar
    29    39    38   ar
    30    39    40   ar
    31     2     7    1
    32     2     3    1
    33    20    19    1
    34     7     9   am
    35     4     3    1
    36     4     5    1
    37    19    18    1
    38    19    21    1
    39    18    17    1
    40    17    15   am
    41     9    10    1
    42    15    10    1
    43    15    16    2
    44    10    11    1
    45    21    22    1
    46    13    12   ar
    47    11    12    1
    48    12    14   ar
