@<TRIPOS>MOLECULE
../1EDN/3STEPMIN_17-21_NOBACKBONE.pdb
 26 23 0 0 0
SMALL
GASTEIGER

@<TRIPOS>ATOM
      1  CB        -6.9230   -0.4370    0.2770 C.3    17  LEU17       0.0000
      2  CG        -6.4950   -1.8450   -0.1910 C.3    17  LEU17       0.0000
      3  CD1       -6.5150   -2.8060    0.9980 C.3    17  LEU17       0.0000
      4  CD2       -7.4310   -2.4140   -1.2600 C.3    17  LEU17       0.0000
      5  CB        -9.0510    3.1310    2.7840 C.3    18  ASP18       0.1258
      6  CG       -10.5470    3.4340    2.8500 C.2    18  ASP18       0.3654
      7  OD1      -11.3300    2.4930    2.5610 O.co2  18  ASP18      -0.2456
      8  OD2      -10.9050    4.5930    3.1470 O.co2  18  ASP18      -0.2456
      9  CB        -4.3960    5.7260    0.0740 C.3    19  ILE19       0.0000
     10  CG2       -3.6150    6.9530   -0.4300 C.3    19  ILE19       0.0000
     11  CG1       -3.7730    5.2100    1.3920 C.3    19  ILE19       0.0000
     12  CD1       -3.8620    6.1700    2.5820 C.3    19  ILE19       0.0000
     13  CB        -6.0900    6.2460   -4.5940 C.3    20  ILE20       0.0000
     14  CG2       -6.7980    6.2490   -5.9680 C.3    20  ILE20       0.0000
     15  CG1       -5.7140    7.6970   -4.2070 C.3    20  ILE20       0.0000
     16  CD1       -4.7810    8.4150   -5.1910 C.3    20  ILE20       0.0000
     17  CB        -9.7020    1.6830   -3.5450 C.3    21  TRP21       0.0327
     18  CG       -10.4970    2.2370   -2.3850 C.ar   21  TRP21      -0.0013
     19  CD1      -10.6860    1.5470   -1.2340 C.ar   21  TRP21       0.0946
     20  NE1      -11.3350    2.3340   -0.3040 N.ar   21  TRP21      -0.2442
     21  CE2      -11.5720    3.5950   -0.7990 C.ar   21  TRP21       0.0810
     22  CZ2      -12.0950    4.7480   -0.2000 C.ar   21  TRP21       0.0191
     23  CH2      -12.2340    5.9130   -0.9670 C.ar   21  TRP21       0.0015
     24  CZ3      -11.8800    5.8920   -2.3260 C.ar   21  TRP21       0.0001
     25  CE3      -11.3480    4.7280   -2.9100 C.ar   21  TRP21       0.0012
     26  CD2      -11.1270    3.5500   -2.1550 C.ar   21  TRP21       0.0152
@<TRIPOS>BOND
     1    14    13    1
     2    16    15    1
     3    13    15    1
     4    17    18    1
     5    25    24   ar
     6    25    26   ar
     7    18    26   ar
     8    18    19   ar
     9    24    23   ar
    10    26    21   ar
    11     4     2    1
    12    19    20   ar
    13    23    22   ar
    14    21    20   ar
    15    21    22   ar
    16    10     9    1
    17     2     1    1
    18     2     3    1
    19     9    11    1
    20    11    12    1
    21     7     6   ar
    22     5     6    1
    23     6     8   ar
@<TRIPOS>MOLECULE
01178588C
 55 57 0 0 0
SMALL
GASTEIGER

@<TRIPOS>ATOM
      1 S         -10.5888    2.2423   -1.5467 S.O2    1  LIG11       0.0756
      2 C         -11.5806    3.6925   -1.3508 C.ar    1  LIG11       0.1344
      3 N          -9.0084    2.7691   -1.2588 N.pl3   1  LIG11      -0.1951
      4 O         -10.7032    1.8187   -2.9238 O.2     1  LIG11      -0.1499
      5 O         -10.9841    1.3284   -0.4876 O.2     1  LIG11      -0.1499
      6 C         -11.3477    4.8890   -2.0229 C.ar    1  LIG11       0.0975
      7 C         -12.6638    3.6160   -0.4560 C.ar    1  LIG11      -0.0315
      8 C          -8.2120    1.7229   -0.7109 C.ar    1  LIG11       0.2006
      9 C         -10.2455    5.2098   -2.9495 C.ar    1  LIG11       0.0023
     10 N         -12.1654    5.9693   -1.8164 N.ar    1  LIG11      -0.2530
     11 C         -13.4824    4.7184   -0.2503 C.ar    1  LIG11      -0.0417
     12 C          -8.1865    1.3973    0.6529 C.ar    1  LIG11       0.2574
     13 N          -7.6190    0.9651   -1.6548 N.ar    1  LIG11      -0.2325
     14 C          -9.4358    6.3307   -2.6895 C.ar    1  LIG11      -0.0523
     15 C         -10.0091    4.5141   -4.1435 C.ar    1  LIG11      -0.0523
     16 C         -13.1948    5.8671   -0.9519 C.ar    1  LIG11       0.0284
     17 N          -7.5532    0.2875    1.1138 N.ar    1  LIG11      -0.2137
     18 O          -8.8260    2.2393    1.5427 O.3     1  LIG11      -0.4773
     19 C          -6.9966   -0.1411   -1.1839 C.ar    1  LIG11       0.0510
     20 C          -8.4296    6.7327   -3.5724 C.ar    1  LIG11      -0.0579
     21 C          -8.9801    4.8963   -5.0174 C.ar    1  LIG11      -0.0579
     22 C          -6.9661   -0.4866    0.1671 C.ar    1  LIG11       0.0602
     23 C          -8.7065    1.8182    2.8948 C.3     1  LIG11       0.0805
     24 C          -8.1849    6.0154   -4.7445 C.ar    1  LIG11      -0.0465
     25 C          -6.3060   -1.7538    0.6118 C.3     1  LIG11      -0.0208
     26 C          -7.1235    6.4791   -5.7230 C.3     1  LIG11      -0.0174
     27 C          -5.6519    6.2925   -5.2918 C.3     1  LIG11       0.0085
     28 C          -5.2302    7.3191   -4.2070 C.2     1  LIG11       0.0477
     29 C          -5.3630    4.8423   -4.8867 C.3     1  LIG11      -0.0544
     30 C          -4.7365    6.6651   -6.4756 C.3     1  LIG11      -0.0544
     31 O          -5.6176    8.5093   -4.3964 O.co2   1  LIG11      -0.5493
     32 O          -4.5229    6.8680   -3.2615 O.co2   1  LIG11      -0.5493
     33 H          -8.5815    3.0162   -2.1565 H       1  LIG11       0.1754
     34 H         -12.8730    2.6983    0.0898 H       1  LIG11       0.0638
     35 H         -14.3168    4.6793    0.4398 H       1  LIG11       0.0633
     36 H          -9.6066    6.9322   -1.7980 H       1  LIG11       0.0624
     37 H         -10.6430    3.6822   -4.4390 H       1  LIG11       0.0624
     38 H         -13.7925    6.7664   -0.8374 H       1  LIG11       0.0830
     39 H          -6.5277   -0.7642   -1.9389 H       1  LIG11       0.0848
     40 H          -7.8490    7.6266   -3.3448 H       1  LIG11       0.0620
     41 H          -8.8221    4.3274   -5.9308 H       1  LIG11       0.0620
     42 H          -9.2228    2.5531    3.5199 H       1  LIG11       0.0660
     43 H          -7.6584    1.7912    3.2135 H       1  LIG11       0.0660
     44 H          -9.1912    0.8485    3.0529 H       1  LIG11       0.0660
     45 H          -6.3526   -1.8557    1.7010 H       1  LIG11       0.0293
     46 H          -5.2538   -1.7618    0.3125 H       1  LIG11       0.0293
     47 H          -6.8126   -2.6175    0.1692 H       1  LIG11       0.0293
     48 H          -7.3332    7.5299   -5.9658 H       1  LIG11       0.0322
     49 H          -7.2793    5.9436   -6.6707 H       1  LIG11       0.0322
     50 H          -5.6745    4.1438   -5.6714 H       1  LIG11       0.0239
     51 H          -5.8836    4.5691   -3.9625 H       1  LIG11       0.0239
     52 H          -4.2929    4.6801   -4.7116 H       1  LIG11       0.0239
     53 H          -4.8827    5.9776   -7.3165 H       1  LIG11       0.0239
     54 H          -3.6772    6.6234   -6.1942 H       1  LIG11       0.0239
     55 H          -4.9368    7.6785   -6.8439 H       1  LIG11       0.0239
@<TRIPOS>BOND
     1     1     5    2
     2     1     4    2
     3     1     3    1
     4     1     2    1
     5     2     6   ar
     6     2     7   ar
     7     3     8    1
     8     6    10   ar
     9     6     9    1
    10     7    11   ar
    11     8    12   ar
    12     8    13   ar
    13     9    14   ar
    14     9    15   ar
    15    10    16   ar
    16    11    16   ar
    17    12    17   ar
    18    12    18    1
    19    13    19   ar
    20    14    20   ar
    21    15    21   ar
    22    17    22   ar
    23    18    23    1
    24    19    22   ar
    25    20    24   ar
    26    21    24   ar
    27    22    25    1
    28    24    26    1
    29    26    27    1
    30    27    30    1
    31    27    29    1
    32    27    28    1
    33    28    32   ar
    34    28    31   ar
    35     3    33    1
    36     7    34    1
    37    11    35    1
    38    14    36    1
    39    15    37    1
    40    16    38    1
    41    19    39    1
    42    20    40    1
    43    21    41    1
    44    23    42    1
    45    23    43    1
    46    23    44    1
    47    25    45    1
    48    25    46    1
    49    25    47    1
    50    26    48    1
    51    26    49    1
    52    29    50    1
    53    29    51    1
    54    29    52    1
    55    30    53    1
    56    30    54    1
    57    30    55    1
@<TRIPOS>MOLECULE
../1EDN/3STEPMIN_17-21.pdb
 47 48 0 0 0
SMALL
GASTEIGER

@<TRIPOS>ATOM
      1  N         -5.4290    0.8830   -1.1740 N.3    17  LEU17      -0.1231
      2  CA        -6.8230    0.6710   -0.7980 C.3    17  LEU17       0.1693
      3  CB        -6.9230   -0.4370    0.2770 C.3    17  LEU17       0.0284
      4  CG        -6.4950   -1.8450   -0.1910 C.3    17  LEU17       0.0019
      5  CD1       -6.5150   -2.8060    0.9980 C.3    17  LEU17       0.0001
      6  CD2       -7.4310   -2.4140   -1.2600 C.3    17  LEU17       0.0001
      7  C         -7.3990    2.0370   -0.3760 C.2    17  LEU17       0.2592
      8  O         -7.4670    2.9330   -1.2040 O.2    17  LEU17      -0.2718
      9  N         -7.7380    2.2560    0.8970 N.am   18  ASP18      -0.1960
     10  CA        -8.5130    3.4280    1.3730 C.3    18  ASP18       0.1840
     11  CB        -9.0510    3.1310    2.7840 C.3    18  ASP18       0.1450
     12  CG       -10.5470    3.4340    2.8500 C.2    18  ASP18       0.3671
     13  OD1      -11.3300    2.4930    2.5610 O.co2  18  ASP18      -0.2456
     14  OD2      -10.9050    4.5930    3.1470 O.co2  18  ASP18      -0.2456
     15  C         -7.8270    4.8120    1.2910 C.2    18  ASP18       0.2622
     16  O         -8.3890    5.8210    1.7350 O.2    18  ASP18      -0.2715
     17  N         -6.6250    4.8510    0.7010 N.am   19  ILE19      -0.1963
     18  CA        -5.9180    6.0210    0.1680 C.3    19  ILE19       0.1727
     19  CB        -4.3960    5.7260    0.0740 C.3    19  ILE19       0.0290
     20  CG2       -3.6150    6.9530   -0.4300 C.3    19  ILE19       0.0023
     21  CG1       -3.7730    5.2100    1.3920 C.3    19  ILE19       0.0022
     22  CD1       -3.8620    6.1700    2.5820 C.3    19  ILE19       0.0001
     23  C         -6.4970    6.4050   -1.2110 C.2    19  ILE19       0.2616
     24  O         -7.0070    7.5130   -1.3720 O.2    19  ILE19      -0.2715
     25  N         -6.3950    5.4980   -2.1940 N.am   20  ILE20      -0.1963
     26  CA        -6.9990    5.5490   -3.5400 C.3    20  ILE20       0.1727
     27  CB        -6.0900    6.2460   -4.5940 C.3    20  ILE20       0.0290
     28  CG2       -6.7980    6.2490   -5.9680 C.3    20  ILE20       0.0023
     29  CG1       -5.7140    7.6970   -4.2070 C.3    20  ILE20       0.0022
     30  CD1       -4.7810    8.4150   -5.1910 C.3    20  ILE20       0.0001
     31  C         -7.3180    4.1070   -3.9880 C.2    20  ILE20       0.2617
     32  O         -6.4020    3.3070   -4.2100 O.2    20  ILE20      -0.2715
     33  N         -8.6100    3.8210   -4.1620 N.am   21  TRP21      -0.1938
     34  CA        -9.2240    2.5950   -4.7020 C.3    21  TRP21       0.2021
     35  CB        -9.7020    1.6830   -3.5450 C.3    21  TRP21       0.0612
     36  CG       -10.4970    2.2370   -2.3850 C.ar   21  TRP21       0.0007
     37  CD1      -10.6860    1.5470   -1.2340 C.ar   21  TRP21       0.0946
     38  NE1      -11.3350    2.3340   -0.3040 N.ar   21  TRP21      -0.2442
     39  CE2      -11.5720    3.5950   -0.7990 C.ar   21  TRP21       0.0810
     40  CZ2      -12.0950    4.7480   -0.2000 C.ar   21  TRP21       0.0191
     41  CH2      -12.2340    5.9130   -0.9670 C.ar   21  TRP21       0.0015
     42  CZ3      -11.8800    5.8920   -2.3260 C.ar   21  TRP21       0.0001
     43  CE3      -11.3480    4.7280   -2.9100 C.ar   21  TRP21       0.0012
     44  CD2      -11.1270    3.5500   -2.1550 C.ar   21  TRP21       0.0152
     45  C        -10.3230    2.8760   -5.7330 C.2    21  TRP21       0.3845
     46  O        -11.0800    1.9620   -6.0950 O.co2  21  TRP21      -0.2437
     47  OXT      -10.4270    4.0430   -6.2080 O.co2  21  TRP21      -0.2437
@<TRIPOS>BOND
     1    47    45   ar
     2    46    45   ar
     3    28    27    1
     4    45    34    1
     5    30    29    1
     6    34    33    1
     7    34    35    1
     8    27    29    1
     9    27    26    1
    10    32    31    2
    11    33    31   am
    12    31    26    1
    13    35    36    1
    14    26    25    1
    15    43    42   ar
    16    43    44   ar
    17    36    44   ar
    18    36    37   ar
    19    42    41   ar
    20    25    23   am
    21    44    39   ar
    22    24    23    2
    23     6     4    1
    24    37    38   ar
    25    23    18    1
    26     8     7    2
    27     1     2    1
    28    41    40   ar
    29    39    38   ar
    30    39    40   ar
    31     2     7    1
    32     2     3    1
    33    20    19    1
    34     7     9   am
    35     4     3    1
    36     4     5    1
    37    19    18    1
    38    19    21    1
    39    18    17    1
    40    17    15   am
    41     9    10    1
    42    15    10    1
    43    15    16    2
    44    10    11    1
    45    21    22    1
    46    13    12   ar
    47    11    12    1
    48    12    14   ar
