@<TRIPOS>MOLECULE
../1EDN/3STEPMIN_17-21_NOBACKBONE.pdb
 26 23 0 0 0
SMALL
GASTEIGER

@<TRIPOS>ATOM
      1  CB        -6.9230   -0.4370    0.2770 C.3    17  LEU17       0.0000
      2  CG        -6.4950   -1.8450   -0.1910 C.3    17  LEU17       0.0000
      3  CD1       -6.5150   -2.8060    0.9980 C.3    17  LEU17       0.0000
      4  CD2       -7.4310   -2.4140   -1.2600 C.3    17  LEU17       0.0000
      5  CB        -9.0510    3.1310    2.7840 C.3    18  ASP18       0.1258
      6  CG       -10.5470    3.4340    2.8500 C.2    18  ASP18       0.3654
      7  OD1      -11.3300    2.4930    2.5610 O.co2  18  ASP18      -0.2456
      8  OD2      -10.9050    4.5930    3.1470 O.co2  18  ASP18      -0.2456
      9  CB        -4.3960    5.7260    0.0740 C.3    19  ILE19       0.0000
     10  CG2       -3.6150    6.9530   -0.4300 C.3    19  ILE19       0.0000
     11  CG1       -3.7730    5.2100    1.3920 C.3    19  ILE19       0.0000
     12  CD1       -3.8620    6.1700    2.5820 C.3    19  ILE19       0.0000
     13  CB        -6.0900    6.2460   -4.5940 C.3    20  ILE20       0.0000
     14  CG2       -6.7980    6.2490   -5.9680 C.3    20  ILE20       0.0000
     15  CG1       -5.7140    7.6970   -4.2070 C.3    20  ILE20       0.0000
     16  CD1       -4.7810    8.4150   -5.1910 C.3    20  ILE20       0.0000
     17  CB        -9.7020    1.6830   -3.5450 C.3    21  TRP21       0.0327
     18  CG       -10.4970    2.2370   -2.3850 C.ar   21  TRP21      -0.0013
     19  CD1      -10.6860    1.5470   -1.2340 C.ar   21  TRP21       0.0946
     20  NE1      -11.3350    2.3340   -0.3040 N.ar   21  TRP21      -0.2442
     21  CE2      -11.5720    3.5950   -0.7990 C.ar   21  TRP21       0.0810
     22  CZ2      -12.0950    4.7480   -0.2000 C.ar   21  TRP21       0.0191
     23  CH2      -12.2340    5.9130   -0.9670 C.ar   21  TRP21       0.0015
     24  CZ3      -11.8800    5.8920   -2.3260 C.ar   21  TRP21       0.0001
     25  CE3      -11.3480    4.7280   -2.9100 C.ar   21  TRP21       0.0012
     26  CD2      -11.1270    3.5500   -2.1550 C.ar   21  TRP21       0.0152
@<TRIPOS>BOND
     1    14    13    1
     2    16    15    1
     3    13    15    1
     4    17    18    1
     5    25    24   ar
     6    25    26   ar
     7    18    26   ar
     8    18    19   ar
     9    24    23   ar
    10    26    21   ar
    11     4     2    1
    12    19    20   ar
    13    23    22   ar
    14    21    20   ar
    15    21    22   ar
    16    10     9    1
    17     2     1    1
    18     2     3    1
    19     9    11    1
    20    11    12    1
    21     7     6   ar
    22     5     6    1
    23     6     8   ar
@<TRIPOS>MOLECULE
108002
 64 68 0 0 0
SMALL
GASTEIGER

@<TRIPOS>ATOM
      1 O          -9.9989   -0.0863   -5.2386 O.co2   1  LIG11      -0.5495
      2 O          -9.5980    1.7803   -6.4576 O.co2   1  LIG11      -0.5495
      3 O         -12.1917    3.3195    0.9304 O.3     1  LIG11      -0.4920
      4 O          -7.3679    2.1240   -1.4405 O.3     1  LIG11      -0.4858
      5 O          -5.5034    5.8539   -3.8494 O.3     1  LIG11      -0.4526
      6 O          -6.2429    7.5400   -5.4035 O.3     1  LIG11      -0.4526
      7 O          -6.5889   -2.3960    0.2603 O.3     1  LIG11      -0.4950
      8 O          -4.5526    3.1140   -1.4361 O.co2   1  LIG11      -0.5463
      9 O          -4.5960    2.0949    0.6011 O.co2   1  LIG11      -0.5463
     10 C          -9.2107    1.8717   -4.1078 C.3     1  LIG11       0.0203
     11 C          -9.7798    1.2040   -2.8296 C.3     1  LIG11       0.0218
     12 C          -9.7985    3.3123   -4.1810 C.3     1  LIG11       0.0184
     13 C         -10.3959    2.3490   -2.0592 C.ar    1  LIG11      -0.0320
     14 C         -10.4258    3.5154   -2.8179 C.ar    1  LIG11      -0.0353
     15 C          -8.8266    4.4316   -4.5437 C.ar    1  LIG11      -0.0356
     16 C          -8.8193    0.3287   -2.0275 C.ar    1  LIG11       0.0026
     17 C          -9.6409    1.1169   -5.3799 C.2     1  LIG11       0.0466
     18 C         -10.9966    2.3012   -0.8056 C.ar    1  LIG11      -0.0159
     19 C         -11.0711    4.6520   -2.3416 C.ar    1  LIG11      -0.0542
     20 C         -11.6149    3.4480   -0.3041 C.ar    1  LIG11       0.1208
     21 C          -7.7051    0.8027   -1.3062 C.ar    1  LIG11       0.1283
     22 C          -7.5517    4.5385   -3.9638 C.ar    1  LIG11      -0.0124
     23 C          -9.2467    5.4346   -5.4561 C.ar    1  LIG11      -0.0543
     24 C         -11.6741    4.6129   -1.0814 C.ar    1  LIG11      -0.0196
     25 C          -9.1091   -1.0502   -1.9735 C.ar    1  LIG11      -0.0510
     26 C          -6.7558    5.6091   -4.3149 C.ar    1  LIG11       0.1665
     27 C          -8.4224    6.5165   -5.7857 C.ar    1  LIG11      -0.0159
     28 C          -6.9478   -0.0921   -0.5332 C.ar    1  LIG11       0.0221
     29 C          -8.3470   -1.9259   -1.1987 C.ar    1  LIG11      -0.0194
     30 C          -7.1796    6.5721   -5.1996 C.ar    1  LIG11       0.1662
     31 C          -7.2648   -1.4502   -0.4679 C.ar    1  LIG11       0.1236
     32 C         -12.1176    4.4760    1.7642 C.3     1  LIG11       0.0893
     33 C          -5.1605    7.0289   -4.5935 C.3     1  LIG11       0.2332
     34 C          -6.6693    2.7625   -0.3494 C.3     1  LIG11       0.1287
     35 C         -11.6797    4.0410    3.1604 C.3     1  LIG11      -0.0215
     36 C          -5.1318    2.6269   -0.4229 C.2     1  LIG11       0.0789
     37 C          -5.4055   -1.9454    0.9147 C.3     1  LIG11       0.0788
     38 C         -10.2364    3.5516    3.1671 C.3     1  LIG11      -0.0622
     39 H          -8.1145    1.8657   -4.1035 H       1  LIG11       0.0379
     40 H         -10.6524    0.5892   -3.0912 H       1  LIG11       0.0405
     41 H         -10.6370    3.3370   -4.8905 H       1  LIG11       0.0404
     42 H         -10.9835    1.3828   -0.2274 H       1  LIG11       0.0657
     43 H         -11.1192    5.5499   -2.9479 H       1  LIG11       0.0622
     44 H          -7.1790    3.8026   -3.2575 H       1  LIG11       0.0658
     45 H         -10.2286    5.3540   -5.9176 H       1  LIG11       0.0622
     46 H         -12.2019    5.4923   -0.7318 H       1  LIG11       0.0654
     47 H          -9.9373   -1.4473   -2.5592 H       1  LIG11       0.0623
     48 H          -8.7489    7.2744   -6.4849 H       1  LIG11       0.0655
     49 H          -6.0876    0.2774    0.0052 H       1  LIG11       0.0691
     50 H          -8.5952   -2.9820   -1.1810 H       1  LIG11       0.0654
     51 H         -11.4202    5.2395    1.3984 H       1  LIG11       0.0696
     52 H         -13.1195    4.9169    1.8133 H       1  LIG11       0.0696
     53 H          -4.8528    7.8126   -3.8910 H       1  LIG11       0.1166
     54 H          -4.3127    6.7991   -5.2497 H       1  LIG11       0.1166
     55 H          -6.8980    3.8336   -0.4227 H       1  LIG11       0.0760
     56 H          -7.0661    2.4289    0.6179 H       1  LIG11       0.0760
     57 H         -11.7766    4.8853    3.8515 H       1  LIG11       0.0295
     58 H         -12.3263    3.2331    3.5209 H       1  LIG11       0.0295
     59 H          -4.9499   -2.8107    1.4068 H       1  LIG11       0.0660
     60 H          -4.6771   -1.5527    0.1977 H       1  LIG11       0.0660
     61 H          -5.6401   -1.2109    1.6928 H       1  LIG11       0.0660
     62 H          -9.5595    4.3300    2.8011 H       1  LIG11       0.0231
     63 H          -9.9316    3.2868    4.1838 H       1  LIG11       0.0231
     64 H         -10.1130    2.6668    2.5358 H       1  LIG11       0.0231
@<TRIPOS>BOND
     1     1    17   ar
     2     2    17   ar
     3     3    20    1
     4     3    32    1
     5     4    21    1
     6     4    34    1
     7     5    26    1
     8     5    33    1
     9     6    30    1
    10     6    33    1
    11     7    31    1
    12     7    37    1
    13     8    36   ar
    14     9    36   ar
    15    10    11    1
    16    10    12    1
    17    10    17    1
    18    11    13    1
    19    11    16    1
    20    12    14    1
    21    12    15    1
    22    13    14   ar
    23    13    18   ar
    24    14    19   ar
    25    15    22   ar
    26    15    23   ar
    27    16    21   ar
    28    16    25   ar
    29    18    20   ar
    30    19    24   ar
    31    20    24   ar
    32    21    28   ar
    33    22    26   ar
    34    23    27   ar
    35    25    29   ar
    36    26    30   ar
    37    27    30   ar
    38    28    31   ar
    39    29    31   ar
    40    32    35    1
    41    34    36    1
    42    35    38    1
    43    10    39    1
    44    11    40    1
    45    12    41    1
    46    18    42    1
    47    19    43    1
    48    22    44    1
    49    23    45    1
    50    24    46    1
    51    25    47    1
    52    27    48    1
    53    28    49    1
    54    29    50    1
    55    32    51    1
    56    32    52    1
    57    33    53    1
    58    33    54    1
    59    34    55    1
    60    34    56    1
    61    35    57    1
    62    35    58    1
    63    37    59    1
    64    37    60    1
    65    37    61    1
    66    38    62    1
    67    38    63    1
    68    38    64    1
@<TRIPOS>MOLECULE
../1EDN/3STEPMIN_17-21.pdb
 47 48 0 0 0
SMALL
GASTEIGER

@<TRIPOS>ATOM
      1  N         -5.4290    0.8830   -1.1740 N.3    17  LEU17      -0.1231
      2  CA        -6.8230    0.6710   -0.7980 C.3    17  LEU17       0.1693
      3  CB        -6.9230   -0.4370    0.2770 C.3    17  LEU17       0.0284
      4  CG        -6.4950   -1.8450   -0.1910 C.3    17  LEU17       0.0019
      5  CD1       -6.5150   -2.8060    0.9980 C.3    17  LEU17       0.0001
      6  CD2       -7.4310   -2.4140   -1.2600 C.3    17  LEU17       0.0001
      7  C         -7.3990    2.0370   -0.3760 C.2    17  LEU17       0.2592
      8  O         -7.4670    2.9330   -1.2040 O.2    17  LEU17      -0.2718
      9  N         -7.7380    2.2560    0.8970 N.am   18  ASP18      -0.1960
     10  CA        -8.5130    3.4280    1.3730 C.3    18  ASP18       0.1840
     11  CB        -9.0510    3.1310    2.7840 C.3    18  ASP18       0.1450
     12  CG       -10.5470    3.4340    2.8500 C.2    18  ASP18       0.3671
     13  OD1      -11.3300    2.4930    2.5610 O.co2  18  ASP18      -0.2456
     14  OD2      -10.9050    4.5930    3.1470 O.co2  18  ASP18      -0.2456
     15  C         -7.8270    4.8120    1.2910 C.2    18  ASP18       0.2622
     16  O         -8.3890    5.8210    1.7350 O.2    18  ASP18      -0.2715
     17  N         -6.6250    4.8510    0.7010 N.am   19  ILE19      -0.1963
     18  CA        -5.9180    6.0210    0.1680 C.3    19  ILE19       0.1727
     19  CB        -4.3960    5.7260    0.0740 C.3    19  ILE19       0.0290
     20  CG2       -3.6150    6.9530   -0.4300 C.3    19  ILE19       0.0023
     21  CG1       -3.7730    5.2100    1.3920 C.3    19  ILE19       0.0022
     22  CD1       -3.8620    6.1700    2.5820 C.3    19  ILE19       0.0001
     23  C         -6.4970    6.4050   -1.2110 C.2    19  ILE19       0.2616
     24  O         -7.0070    7.5130   -1.3720 O.2    19  ILE19      -0.2715
     25  N         -6.3950    5.4980   -2.1940 N.am   20  ILE20      -0.1963
     26  CA        -6.9990    5.5490   -3.5400 C.3    20  ILE20       0.1727
     27  CB        -6.0900    6.2460   -4.5940 C.3    20  ILE20       0.0290
     28  CG2       -6.7980    6.2490   -5.9680 C.3    20  ILE20       0.0023
     29  CG1       -5.7140    7.6970   -4.2070 C.3    20  ILE20       0.0022
     30  CD1       -4.7810    8.4150   -5.1910 C.3    20  ILE20       0.0001
     31  C         -7.3180    4.1070   -3.9880 C.2    20  ILE20       0.2617
     32  O         -6.4020    3.3070   -4.2100 O.2    20  ILE20      -0.2715
     33  N         -8.6100    3.8210   -4.1620 N.am   21  TRP21      -0.1938
     34  CA        -9.2240    2.5950   -4.7020 C.3    21  TRP21       0.2021
     35  CB        -9.7020    1.6830   -3.5450 C.3    21  TRP21       0.0612
     36  CG       -10.4970    2.2370   -2.3850 C.ar   21  TRP21       0.0007
     37  CD1      -10.6860    1.5470   -1.2340 C.ar   21  TRP21       0.0946
     38  NE1      -11.3350    2.3340   -0.3040 N.ar   21  TRP21      -0.2442
     39  CE2      -11.5720    3.5950   -0.7990 C.ar   21  TRP21       0.0810
     40  CZ2      -12.0950    4.7480   -0.2000 C.ar   21  TRP21       0.0191
     41  CH2      -12.2340    5.9130   -0.9670 C.ar   21  TRP21       0.0015
     42  CZ3      -11.8800    5.8920   -2.3260 C.ar   21  TRP21       0.0001
     43  CE3      -11.3480    4.7280   -2.9100 C.ar   21  TRP21       0.0012
     44  CD2      -11.1270    3.5500   -2.1550 C.ar   21  TRP21       0.0152
     45  C        -10.3230    2.8760   -5.7330 C.2    21  TRP21       0.3845
     46  O        -11.0800    1.9620   -6.0950 O.co2  21  TRP21      -0.2437
     47  OXT      -10.4270    4.0430   -6.2080 O.co2  21  TRP21      -0.2437
@<TRIPOS>BOND
     1    47    45   ar
     2    46    45   ar
     3    28    27    1
     4    45    34    1
     5    30    29    1
     6    34    33    1
     7    34    35    1
     8    27    29    1
     9    27    26    1
    10    32    31    2
    11    33    31   am
    12    31    26    1
    13    35    36    1
    14    26    25    1
    15    43    42   ar
    16    43    44   ar
    17    36    44   ar
    18    36    37   ar
    19    42    41   ar
    20    25    23   am
    21    44    39   ar
    22    24    23    2
    23     6     4    1
    24    37    38   ar
    25    23    18    1
    26     8     7    2
    27     1     2    1
    28    41    40   ar
    29    39    38   ar
    30    39    40   ar
    31     2     7    1
    32     2     3    1
    33    20    19    1
    34     7     9   am
    35     4     3    1
    36     4     5    1
    37    19    18    1
    38    19    21    1
    39    18    17    1
    40    17    15   am
    41     9    10    1
    42    15    10    1
    43    15    16    2
    44    10    11    1
    45    21    22    1
    46    13    12   ar
    47    11    12    1
    48    12    14   ar
