@<TRIPOS>MOLECULE
../1EDN/PCA1_17-21_NOBACKBONE.pdb
 26 23 0 0 0
SMALL
GASTEIGER

@<TRIPOS>ATOM
      1  CB        -6.0770   -2.3450   -1.7480 C.3    17  LEU17       0.0000
      2  CG        -7.4170   -3.0590   -2.1890 C.3    17  LEU17       0.0000
      3  CD1       -7.4920   -3.1930   -3.7220 C.3    17  LEU17       0.0000
      4  CD2       -7.5340   -4.4610   -1.6100 C.3    17  LEU17       0.0000
      5  CB        -8.8290    0.4520    1.4200 C.3    18  ASP18       0.1258
      6  CG        -9.9140    1.2760    2.0640 C.2    18  ASP18       0.3654
      7  OD1      -10.8560    1.7240    1.3430 O.co2  18  ASP18      -0.2456
      8  OD2       -9.7710    1.5960    3.2830 O.co2  18  ASP18      -0.2456
      9  CB        -5.0730    3.3500    3.1520 C.3    19  ILE19       0.0000
     10  CG2       -4.5850    4.5470    3.9530 C.3    19  ILE19       0.0000
     11  CG1       -5.6210    2.1420    3.9730 C.3    19  ILE19       0.0000
     12  CD1       -6.7460    2.5740    4.8760 C.3    19  ILE19       0.0000
     13  CB        -2.8480    5.4620   -0.8180 C.3    20  ILE20       0.0000
     14  CG2       -2.5210    6.1670    0.5290 C.3    20  ILE20       0.0000
     15  CG1       -1.9270    4.2500   -0.9510 C.3    20  ILE20       0.0000
     16  CD1       -0.4520    4.4090   -1.0350 C.3    20  ILE20       0.0000
     17  CB        -7.1930    6.0870   -4.6010 C.3    21  TRP21       0.0066
     18  CG        -8.1480    4.9210   -4.3560 C.3    21  TRP21       0.0452
     19  CD1       -8.4270    4.3170   -3.1580 C.3    21  TRP21       0.1165
     20  NE1       -9.4680    3.4340   -3.3480 N.pl3  21  TRP21      -0.2376
     21  CE2      -10.0400    3.5420   -4.5600 C.ar   21  TRP21       0.0614
     22  CZ2      -11.2420    2.9770   -5.0990 C.ar   21  TRP21       0.0158
     23  CH2      -11.3060    3.0240   -6.5170 C.ar   21  TRP21       0.0013
     24  CZ3      -10.3640    3.7270   -7.2650 C.ar   21  TRP21      -0.0002
     25  CE3       -9.2810    4.3830   -6.7050 C.ar   21  TRP21      -0.0030
     26  CD2       -9.0950    4.3440   -5.3390 C.ar   21  TRP21      -0.0059
@<TRIPOS>BOND
     1    24    25   ar
     2    24    23   ar
     3    25    26   ar
     4    23    22   ar
     5    26    21   ar
     6    26    18    1
     7    22    21   ar
     8    17    18    1
     9    21    20    1
    10    18    19    1
    11     3     2    1
    12    20    19    1
    13     2     1    1
    14     2     4    1
    15    16    15    1
    16    15    13    1
    17    13    14    1
    18     7     6   ar
    19     5     6    1
    20     6     8   ar
    21     9    10    1
    22     9    11    1
    23    11    12    1
@<TRIPOS>MOLECULE
01012527H
 86 88 0 0 0
SMALL
GASTEIGER

@<TRIPOS>ATOM
      1 C         -10.0737    1.3648   -0.4549 C.3     1  LIG11       0.0531
      2 C          -8.8309    0.8196    0.2384 C.3     1  LIG11      -0.0111
      3 C          -9.9347    2.8833   -0.5849 C.3     1  LIG11       0.0375
      4 C         -11.1085    1.0037    0.6080 C.2     1  LIG11       0.0509
      5 N          -7.9745    2.0257    0.5744 N.4     1  LIG11       0.2448
      6 C          -8.0512   -0.3364   -0.4388 C.3     1  LIG11      -0.0039
      7 C          -9.6739    3.2983   -2.0279 C.ar    1  LIG11      -0.0313
      8 C          -8.8958    3.2397    0.4783 C.3     1  LIG11      -0.0234
      9 O         -11.1871    1.8096    1.5758 O.co2   1  LIG11      -0.5493
     10 O         -11.6397   -0.1234    0.4442 O.co2   1  LIG11      -0.5493
     11 C          -7.3412    1.9036    1.9607 C.3     1  LIG11       0.0465
     12 C          -7.3428   -0.2866   -1.8278 C.3     1  LIG11      -0.0298
     13 C         -10.7241    3.1218   -2.9500 C.ar    1  LIG11      -0.0122
     14 C          -8.4558    3.8308   -2.5014 C.ar    1  LIG11      -0.0124
     15 C          -6.3859    3.0536    2.2912 C.2     1  LIG11       0.2608
     16 C          -6.6127   -1.6556   -2.0740 C.3     1  LIG11      -0.0479
     17 C          -6.2423    0.7886   -1.8817 C.3     1  LIG11      -0.0596
     18 C          -8.3274   -0.0464   -2.9798 C.3     1  LIG11      -0.0596
     19 C         -10.5113    3.4371   -4.2763 C.ar    1  LIG11       0.1702
     20 C          -8.2488    4.1187   -3.8648 C.ar    1  LIG11       0.1656
     21 N          -5.8994    3.1537    3.5915 N.am    1  LIG11      -0.2971
     22 O          -6.0804    3.8577    1.4036 O.2     1  LIG11      -0.2697
     23 C          -7.5087   -2.8963   -2.1830 C.3     1  LIG11      -0.0554
     24 C          -9.3055    3.9171   -4.7340 C.ar    1  LIG11       0.2075
     25 O         -11.4379    3.2987   -5.2629 O.3     1  LIG11      -0.4525
     26 O          -6.9920    4.5658   -4.1601 O.3     1  LIG11      -0.4913
     27 C          -6.1339    2.1655    4.6588 C.3     1  LIG11       0.0148
     28 C          -5.1549    4.3675    3.9476 C.3     1  LIG11       0.0148
     29 C          -6.6920   -4.1356   -2.5230 C.3     1  LIG11      -0.0653
     30 O          -9.3405    4.1395   -6.0781 O.3     1  LIG11      -0.4489
     31 C         -10.6907    3.7559   -6.4020 C.3     1  LIG11       0.2334
     32 C          -6.6360    4.6147   -5.5371 C.3     1  LIG11       0.0790
     33 C          -4.8362    1.5745    5.2176 C.3     1  LIG11      -0.0374
     34 C          -3.7106    4.3513    3.4396 C.3     1  LIG11      -0.0374
     35 C          -5.1110    0.4729    6.2411 C.3     1  LIG11      -0.0545
     36 C          -2.8832    5.5342    3.9465 C.3     1  LIG11      -0.0545
     37 C          -3.8198   -0.0500    6.8523 C.3     1  LIG11      -0.0652
     38 C          -3.4166    6.8858    3.4968 C.3     1  LIG11      -0.0652
     39 H         -10.3315    0.8471   -1.3818 H       1  LIG11       0.0424
     40 H          -9.0802    0.3912    1.2210 H       1  LIG11       0.0858
     41 H         -10.8637    3.4055   -0.3153 H       1  LIG11       0.0409
     42 H          -7.2238    2.1790   -0.1003 H       1  LIG11       0.2042
     43 H          -7.2915   -0.6601    0.2878 H       1  LIG11       0.0325
     44 H          -8.7720   -1.1644   -0.4761 H       1  LIG11       0.0325
     45 H          -8.2935    4.1207    0.2464 H       1  LIG11       0.0821
     46 H          -9.3526    3.3866    1.4620 H       1  LIG11       0.0821
     47 H          -8.1607    1.8685    2.6857 H       1  LIG11       0.0913
     48 H          -6.7729    0.9687    1.9630 H       1  LIG11       0.0913
     49 H         -11.6886    2.7263   -2.6388 H       1  LIG11       0.0658
     50 H          -7.6191    4.0098   -1.8315 H       1  LIG11       0.0658
     51 H          -6.0274   -1.5815   -3.0013 H       1  LIG11       0.0270
     52 H          -5.8816   -1.8205   -1.2707 H       1  LIG11       0.0270
     53 H          -6.6553    1.7953   -1.9353 H       1  LIG11       0.0235
     54 H          -5.5827    0.7274   -1.0091 H       1  LIG11       0.0235
     55 H          -5.6170    0.6728   -2.7751 H       1  LIG11       0.0235
     56 H          -8.6712    0.9848   -3.0032 H       1  LIG11       0.0235
     57 H          -7.8559   -0.2393   -3.9506 H       1  LIG11       0.0235
     58 H          -9.2101   -0.6890   -2.9032 H       1  LIG11       0.0235
     59 H          -8.0348   -3.0757   -1.2404 H       1  LIG11       0.0263
     60 H          -8.2644   -2.7599   -2.9629 H       1  LIG11       0.0263
     61 H          -6.6983    2.6696    5.4522 H       1  LIG11       0.0464
     62 H          -6.7602    1.3493    4.2918 H       1  LIG11       0.0464
     63 H          -5.6908    5.2207    3.5154 H       1  LIG11       0.0464
     64 H          -5.1835    4.4942    5.0361 H       1  LIG11       0.0464
     65 H          -5.9431   -4.3368   -1.7507 H       1  LIG11       0.0230
     66 H          -7.3459   -5.0100   -2.6001 H       1  LIG11       0.0230
     67 H          -6.1756   -4.0142   -3.4808 H       1  LIG11       0.0230
     68 H         -10.6582    2.9534   -7.1478 H       1  LIG11       0.1166
     69 H         -11.2059    4.6191   -6.8387 H       1  LIG11       0.1166
     70 H          -5.5682    4.8476   -5.5948 H       1  LIG11       0.0660
     71 H          -6.7843    3.6451   -6.0249 H       1  LIG11       0.0660
     72 H          -7.1741    5.4149   -6.0542 H       1  LIG11       0.0660
     73 H          -4.2330    1.1694    4.3957 H       1  LIG11       0.0280
     74 H          -4.2406    2.3632    5.6918 H       1  LIG11       0.0280
     75 H          -3.2158    3.4257    3.7546 H       1  LIG11       0.0280
     76 H          -3.6964    4.3424    2.3434 H       1  LIG11       0.0280
     77 H          -5.7565    0.8559    7.0398 H       1  LIG11       0.0263
     78 H          -5.6438   -0.3558    5.7607 H       1  LIG11       0.0263
     79 H          -2.8316    5.5096    5.0413 H       1  LIG11       0.0263
     80 H          -1.8564    5.4224    3.5783 H       1  LIG11       0.0263
     81 H          -3.2890    0.7458    7.3851 H       1  LIG11       0.0230
     82 H          -4.0344   -0.8507    7.5668 H       1  LIG11       0.0230
     83 H          -3.1533   -0.4505    6.0818 H       1  LIG11       0.0230
     84 H          -4.3821    7.1086    3.9610 H       1  LIG11       0.0230
     85 H          -2.7208    7.6797    3.7862 H       1  LIG11       0.0230
     86 H          -3.5384    6.9198    2.4097 H       1  LIG11       0.0230
@<TRIPOS>BOND
     1     1     2    1
     2     1     3    1
     3     1     4    1
     4     2     5    1
     5     2     6    1
     6     3     8    1
     7     3     7    1
     8     4    10   ar
     9     4     9   ar
    10     5     8    1
    11     5    11    1
    12     6    12    1
    13     7    14   ar
    14     7    13   ar
    15    11    15    1
    16    12    18    1
    17    12    17    1
    18    12    16    1
    19    13    19   ar
    20    14    20   ar
    21    15    22    2
    22    15    21   am
    23    16    23    1
    24    19    25    1
    25    19    24   ar
    26    20    24   ar
    27    20    26    1
    28    21    28    1
    29    21    27    1
    30    23    29    1
    31    24    30    1
    32    25    31    1
    33    26    32    1
    34    27    33    1
    35    28    34    1
    36    30    31    1
    37    33    35    1
    38    34    36    1
    39    35    37    1
    40    36    38    1
    41     1    39    1
    42     2    40    1
    43     3    41    1
    44     5    42    1
    45     6    43    1
    46     6    44    1
    47     8    45    1
    48     8    46    1
    49    11    47    1
    50    11    48    1
    51    13    49    1
    52    14    50    1
    53    16    51    1
    54    16    52    1
    55    17    53    1
    56    17    54    1
    57    17    55    1
    58    18    56    1
    59    18    57    1
    60    18    58    1
    61    23    59    1
    62    23    60    1
    63    27    61    1
    64    27    62    1
    65    28    63    1
    66    28    64    1
    67    29    65    1
    68    29    66    1
    69    29    67    1
    70    31    68    1
    71    31    69    1
    72    32    70    1
    73    32    71    1
    74    32    72    1
    75    33    73    1
    76    33    74    1
    77    34    75    1
    78    34    76    1
    79    35    77    1
    80    35    78    1
    81    36    79    1
    82    36    80    1
    83    37    81    1
    84    37    82    1
    85    37    83    1
    86    38    84    1
    87    38    85    1
    88    38    86    1
@<TRIPOS>MOLECULE
../1EDN/PCA1_17-21.pdb
 47 48 0 0 0
SMALL
GASTEIGER

@<TRIPOS>ATOM
      1  N         -4.6470   -0.3680   -1.6750 N.3    17  LEU17      -0.1231
      2  CA        -5.8920   -0.8550   -2.2480 C.3    17  LEU17       0.1693
      3  CB        -6.0770   -2.3450   -1.7480 C.3    17  LEU17       0.0284
      4  CG        -7.4170   -3.0590   -2.1890 C.3    17  LEU17       0.0019
      5  CD1       -7.4920   -3.1930   -3.7220 C.3    17  LEU17       0.0001
      6  CD2       -7.5340   -4.4610   -1.6100 C.3    17  LEU17       0.0001
      7  C         -7.0080    0.1010   -1.8270 C.2    17  LEU17       0.2592
      8  O         -7.6220    0.6590   -2.7680 O.2    17  LEU17      -0.2718
      9  N         -7.2890    0.1920   -0.5460 N.am   18  ASP18      -0.1960
     10  CA        -8.2730    1.1070    0.1120 C.3    18  ASP18       0.1840
     11  CB        -8.8290    0.4520    1.4200 C.3    18  ASP18       0.1450
     12  CG        -9.9140    1.2760    2.0640 C.2    18  ASP18       0.3671
     13  OD1      -10.8560    1.7240    1.3430 O.co2  18  ASP18      -0.2456
     14  OD2       -9.7710    1.5960    3.2830 O.co2  18  ASP18      -0.2456
     15  C         -7.6270    2.4530    0.4740 C.2    18  ASP18       0.2622
     16  O         -8.0770    3.4620   -0.0480 O.2    18  ASP18      -0.2715
     17  N         -6.6010    2.4770    1.3340 N.am   19  ILE19      -0.1963
     18  CA        -6.1660    3.6270    2.0790 C.3    19  ILE19       0.1727
     19  CB        -5.0730    3.3500    3.1520 C.3    19  ILE19       0.0290
     20  CG2       -4.5850    4.5470    3.9530 C.3    19  ILE19       0.0023
     21  CG1       -5.6210    2.1420    3.9730 C.3    19  ILE19       0.0022
     22  CD1       -6.7460    2.5740    4.8760 C.3    19  ILE19       0.0001
     23  C         -5.6740    4.7260    1.1170 C.2    19  ILE19       0.2616
     24  O         -5.9640    5.8590    1.4260 O.2    19  ILE19      -0.2715
     25  N         -4.8940    4.3400    0.1060 N.am   20  ILE20      -0.1963
     26  CA        -4.3700    5.1770   -0.9560 C.3    20  ILE20       0.1727
     27  CB        -2.8480    5.4620   -0.8180 C.3    20  ILE20       0.0290
     28  CG2       -2.5210    6.1670    0.5290 C.3    20  ILE20       0.0023
     29  CG1       -1.9270    4.2500   -0.9510 C.3    20  ILE20       0.0022
     30  CD1       -0.4520    4.4090   -1.0350 C.3    20  ILE20       0.0001
     31  C         -4.8260    4.7960   -2.3980 C.2    20  ILE20       0.2617
     32  O         -4.8210    3.6210   -2.7490 O.2    20  ILE20      -0.2715
     33  N         -5.1950    5.7710   -3.1960 N.am   21  TRP21      -0.1941
     34  CA        -5.6960    5.8160   -4.5740 C.3    21  TRP21       0.1982
     35  CB        -7.1930    6.0870   -4.6010 C.3    21  TRP21       0.0394
     36  CG        -8.1480    4.9210   -4.3560 C.3    21  TRP21       0.0475
     37  CD1       -8.4270    4.3170   -3.1580 C.3    21  TRP21       0.1166
     38  NE1       -9.4680    3.4340   -3.3480 N.pl3  21  TRP21      -0.2376
     39  CE2      -10.0400    3.5420   -4.5600 C.ar   21  TRP21       0.0614
     40  CZ2      -11.2420    2.9770   -5.0990 C.ar   21  TRP21       0.0158
     41  CH2      -11.3060    3.0240   -6.5170 C.ar   21  TRP21       0.0013
     42  CZ3      -10.3640    3.7270   -7.2650 C.ar   21  TRP21      -0.0002
     43  CE3       -9.2810    4.3830   -6.7050 C.ar   21  TRP21      -0.0030
     44  CD2       -9.0950    4.3440   -5.3390 C.ar   21  TRP21      -0.0059
     45  C         -4.8510    6.8160   -5.3910 C.2    21  TRP21       0.3842
     46  O         -5.0400    8.0490   -5.1500 O.co2  21  TRP21      -0.2437
     47  OXT       -3.9720    6.3760   -6.1010 O.co2  21  TRP21      -0.2437
@<TRIPOS>BOND
     1    42    43   ar
     2    42    41   ar
     3    43    44   ar
     4    41    40   ar
     5    47    45   ar
     6    45    46   ar
     7    45    34    1
     8    44    39   ar
     9    44    36    1
    10    40    39   ar
    11    35    34    1
    12    35    36    1
    13    34    33    1
    14    39    38    1
    15    36    37    1
    16     5     4    1
    17    38    37    1
    18    33    31   am
    19     8     7    2
    20    32    31    2
    21    31    26    1
    22     2     7    1
    23     2     3    1
    24     2     1    1
    25     4     3    1
    26     4     6    1
    27     7     9   am
    28    30    29    1
    29    26    27    1
    30    26    25    1
    31    29    27    1
    32    27    28    1
    33     9    10    1
    34    16    15    2
    35    25    23   am
    36    10    15    1
    37    10    11    1
    38    15    17   am
    39    23    24    2
    40    23    18    1
    41    17    18    1
    42    13    12   ar
    43    11    12    1
    44    12    14   ar
    45    18    19    1
    46    19    20    1
    47    19    21    1
    48    21    22    1
