@<TRIPOS>MOLECULE
../1EDN/PCA1_17-21_NOBACKBONE.pdb
 26 23 0 0 0
SMALL
GASTEIGER

@<TRIPOS>ATOM
      1  CB        -6.0770   -2.3450   -1.7480 C.3    17  LEU17       0.0000
      2  CG        -7.4170   -3.0590   -2.1890 C.3    17  LEU17       0.0000
      3  CD1       -7.4920   -3.1930   -3.7220 C.3    17  LEU17       0.0000
      4  CD2       -7.5340   -4.4610   -1.6100 C.3    17  LEU17       0.0000
      5  CB        -8.8290    0.4520    1.4200 C.3    18  ASP18       0.1258
      6  CG        -9.9140    1.2760    2.0640 C.2    18  ASP18       0.3654
      7  OD1      -10.8560    1.7240    1.3430 O.co2  18  ASP18      -0.2456
      8  OD2       -9.7710    1.5960    3.2830 O.co2  18  ASP18      -0.2456
      9  CB        -5.0730    3.3500    3.1520 C.3    19  ILE19       0.0000
     10  CG2       -4.5850    4.5470    3.9530 C.3    19  ILE19       0.0000
     11  CG1       -5.6210    2.1420    3.9730 C.3    19  ILE19       0.0000
     12  CD1       -6.7460    2.5740    4.8760 C.3    19  ILE19       0.0000
     13  CB        -2.8480    5.4620   -0.8180 C.3    20  ILE20       0.0000
     14  CG2       -2.5210    6.1670    0.5290 C.3    20  ILE20       0.0000
     15  CG1       -1.9270    4.2500   -0.9510 C.3    20  ILE20       0.0000
     16  CD1       -0.4520    4.4090   -1.0350 C.3    20  ILE20       0.0000
     17  CB        -7.1930    6.0870   -4.6010 C.3    21  TRP21       0.0066
     18  CG        -8.1480    4.9210   -4.3560 C.3    21  TRP21       0.0452
     19  CD1       -8.4270    4.3170   -3.1580 C.3    21  TRP21       0.1165
     20  NE1       -9.4680    3.4340   -3.3480 N.pl3  21  TRP21      -0.2376
     21  CE2      -10.0400    3.5420   -4.5600 C.ar   21  TRP21       0.0614
     22  CZ2      -11.2420    2.9770   -5.0990 C.ar   21  TRP21       0.0158
     23  CH2      -11.3060    3.0240   -6.5170 C.ar   21  TRP21       0.0013
     24  CZ3      -10.3640    3.7270   -7.2650 C.ar   21  TRP21      -0.0002
     25  CE3       -9.2810    4.3830   -6.7050 C.ar   21  TRP21      -0.0030
     26  CD2       -9.0950    4.3440   -5.3390 C.ar   21  TRP21      -0.0059
@<TRIPOS>BOND
     1    24    25   ar
     2    24    23   ar
     3    25    26   ar
     4    23    22   ar
     5    26    21   ar
     6    26    18    1
     7    22    21   ar
     8    17    18    1
     9    21    20    1
    10    18    19    1
    11     3     2    1
    12    20    19    1
    13     2     1    1
    14     2     4    1
    15    16    15    1
    16    15    13    1
    17    13    14    1
    18     7     6   ar
    19     5     6    1
    20     6     8   ar
    21     9    10    1
    22     9    11    1
    23    11    12    1
@<TRIPOS>MOLECULE
*****
 67 70 0 0 0
SMALL
GASTEIGER

@<TRIPOS>ATOM
      1 C          -9.7742    5.0015   -6.6301 C.ar    1  LIG11       0.0483
      2 C         -10.0985    3.6717   -6.7685 C.ar    1  LIG11       0.0543
      3 C          -9.7810    2.8685   -5.6979 C.ar    1  LIG11       0.0483
      4 N          -9.2028    3.3277   -4.5673 N.ar    1  LIG11      -0.2022
      5 N          -9.1946    5.5164   -5.5250 N.ar    1  LIG11      -0.2022
      6 C          -9.7403   -0.0927    2.0690 C.ar    1  LIG11      -0.0504
      7 C          -9.7164    0.5719    3.2934 C.ar    1  LIG11      -0.0583
      8 C          -9.2403    1.8886    3.3866 C.ar    1  LIG11      -0.0535
      9 C          -8.7414    2.5909    2.2725 C.ar    1  LIG11      -0.0094
     10 C          -8.7394    1.8749    1.0581 C.ar    1  LIG11      -0.0535
     11 C          -9.2560    0.5753    0.9467 C.ar    1  LIG11      -0.0583
     12 C          -4.3545    2.7908    1.1009 C.ar    1  LIG11      -0.0561
     13 C          -5.0348    2.5730    2.3028 C.ar    1  LIG11      -0.0348
     14 C          -5.0401    3.5621    3.2836 C.ar    1  LIG11       0.1086
     15 C          -4.3344    4.7491    3.0914 C.ar    1  LIG11      -0.0348
     16 C          -3.6623    4.9601    1.8847 C.ar    1  LIG11      -0.0561
     17 C          -2.8982    4.2572   -0.4556 C.3     1  LIG11       0.0132
     18 C          -3.6571    3.9890    0.8617 C.ar    1  LIG11      -0.0394
     19 C          -2.9239    3.0616   -1.4376 C.3     1  LIG11      -0.0537
     20 C          -3.4866    5.5025   -1.1772 C.3     1  LIG11       0.0533
     21 C          -1.4102    4.5351   -0.1343 C.3     1  LIG11      -0.0537
     22 O          -4.8318    5.3019   -1.6042 O.3     1  LIG11      -0.3942
     23 S          -5.8763    3.2696    4.8203 S.O2    1  LIG11       0.0735
     24 O          -5.2008    4.0454    5.8387 O.2     1  LIG11      -0.1499
     25 O          -6.0275    1.8353    4.9822 O.2     1  LIG11      -0.1499
     26 N          -7.4302    3.9322    4.7065 N.pl3   1  LIG11      -0.1988
     27 C          -8.2930    4.0167    2.3675 C.ar    1  LIG11       0.0847
     28 C          -8.4074    4.9501    1.3330 C.ar    1  LIG11       0.2276
     29 N          -8.0921    6.2623    1.4192 N.ar    1  LIG11      -0.2008
     30 C          -7.6059    6.6790    2.5829 C.ar    1  LIG11       0.1219
     31 N          -7.4138    5.9112    3.6521 N.ar    1  LIG11      -0.2186
     32 C          -7.7541    4.6159    3.5073 C.ar    1  LIG11       0.1524
     33 C         -10.3373   -1.4631    1.9540 C.3     1  LIG11      -0.0397
     34 O          -8.9655    4.5503    0.1379 O.3     1  LIG11      -0.4724
     35 C          -8.5035    5.3022   -0.9897 C.3     1  LIG11       0.1252
     36 C          -8.7238    4.4471   -2.2331 C.3     1  LIG11       0.1267
     37 O          -8.4037    5.2048   -3.3968 O.3     1  LIG11      -0.4590
     38 C          -8.9526    4.6501   -4.5306 C.ar    1  LIG11       0.3180
     39 BR        -10.9265    2.9987   -8.3120 Br      1  LIG11      -0.0472
     40 H          -9.9776    5.7229   -7.4161 H       1  LIG11       0.0843
     41 H          -9.9895    1.8026   -5.7045 H       1  LIG11       0.0843
     42 H         -10.0818    0.0786    4.1922 H       1  LIG11       0.0620
     43 H          -9.2878    2.3533    4.3688 H       1  LIG11       0.0624
     44 H          -8.3479    2.3188    0.1465 H       1  LIG11       0.0624
     45 H          -9.2790    0.0964   -0.0299 H       1  LIG11       0.0620
     46 H          -4.3853    1.9935    0.3639 H       1  LIG11       0.0621
     47 H          -5.5582    1.6310    2.4595 H       1  LIG11       0.0637
     48 H          -4.3116    5.5150    3.8634 H       1  LIG11       0.0637
     49 H          -3.1361    5.9046    1.7561 H       1  LIG11       0.0621
     50 H          -2.4440    2.1767   -1.0027 H       1  LIG11       0.0239
     51 H          -2.3836    3.3014   -2.3611 H       1  LIG11       0.0239
     52 H          -3.9434    2.7820   -1.7243 H       1  LIG11       0.0239
     53 H          -2.8916    5.7574   -2.0627 H       1  LIG11       0.0566
     54 H          -3.4790    6.3856   -0.5296 H       1  LIG11       0.0566
     55 H          -1.2766    5.4425    0.4648 H       1  LIG11       0.0239
     56 H          -0.8268    4.6713   -1.0527 H       1  LIG11       0.0239
     57 H          -0.9633    3.7032    0.4231 H       1  LIG11       0.0239
     58 H          -4.8112    4.7483   -2.4028 H       1  LIG11       0.2094
     59 H          -7.4628    4.6333    5.4491 H       1  LIG11       0.1753
     60 H          -7.3435    7.7275    2.6660 H       1  LIG11       0.1049
     61 H         -10.1000   -2.0663    2.8366 H       1  LIG11       0.0278
     62 H          -9.9447   -1.9942    1.0806 H       1  LIG11       0.0278
     63 H         -11.4253   -1.3896    1.8569 H       1  LIG11       0.0278
     64 H          -7.4376    5.5503   -0.9141 H       1  LIG11       0.0731
     65 H          -9.0731    6.2360   -1.0717 H       1  LIG11       0.0731
     66 H          -9.7700    4.1118   -2.2401 H       1  LIG11       0.0732
     67 H          -8.0803    3.5592   -2.1787 H       1  LIG11       0.0732
@<TRIPOS>BOND
     1     1     2   ar
     2     2     3   ar
     3     2    39    1
     4     3     4   ar
     5     4    38   ar
     6     5     1   ar
     7     6     7   ar
     8     6    33    1
     9     7     8   ar
    10     8     9   ar
    11     9    10   ar
    12    10    11   ar
    13    11     6   ar
    14    12    13   ar
    15    13    14   ar
    16    14    15   ar
    17    15    16   ar
    18    16    18   ar
    19    17    18    1
    20    17    21    1
    21    17    20    1
    22    17    19    1
    23    18    12   ar
    24    20    22    1
    25    23    26    1
    26    23    25    2
    27    23    24    2
    28    23    14    1
    29    26    32    1
    30    27    28   ar
    31    27     9    1
    32    28    29   ar
    33    29    30   ar
    34    30    31   ar
    35    31    32   ar
    36    32    27   ar
    37    34    35    1
    38    34    28    1
    39    35    36    1
    40    36    37    1
    41    37    38    1
    42    38     5   ar
    43     1    40    1
    44     3    41    1
    45     7    42    1
    46     8    43    1
    47    10    44    1
    48    11    45    1
    49    12    46    1
    50    13    47    1
    51    15    48    1
    52    16    49    1
    53    19    50    1
    54    19    51    1
    55    19    52    1
    56    20    53    1
    57    20    54    1
    58    21    55    1
    59    21    56    1
    60    21    57    1
    61    22    58    1
    62    26    59    1
    63    30    60    1
    64    33    61    1
    65    33    62    1
    66    33    63    1
    67    35    64    1
    68    35    65    1
    69    36    66    1
    70    36    67    1
@<TRIPOS>MOLECULE
../1EDN/PCA1_17-21.pdb
 47 48 0 0 0
SMALL
GASTEIGER

@<TRIPOS>ATOM
      1  N         -4.6470   -0.3680   -1.6750 N.3    17  LEU17      -0.1231
      2  CA        -5.8920   -0.8550   -2.2480 C.3    17  LEU17       0.1693
      3  CB        -6.0770   -2.3450   -1.7480 C.3    17  LEU17       0.0284
      4  CG        -7.4170   -3.0590   -2.1890 C.3    17  LEU17       0.0019
      5  CD1       -7.4920   -3.1930   -3.7220 C.3    17  LEU17       0.0001
      6  CD2       -7.5340   -4.4610   -1.6100 C.3    17  LEU17       0.0001
      7  C         -7.0080    0.1010   -1.8270 C.2    17  LEU17       0.2592
      8  O         -7.6220    0.6590   -2.7680 O.2    17  LEU17      -0.2718
      9  N         -7.2890    0.1920   -0.5460 N.am   18  ASP18      -0.1960
     10  CA        -8.2730    1.1070    0.1120 C.3    18  ASP18       0.1840
     11  CB        -8.8290    0.4520    1.4200 C.3    18  ASP18       0.1450
     12  CG        -9.9140    1.2760    2.0640 C.2    18  ASP18       0.3671
     13  OD1      -10.8560    1.7240    1.3430 O.co2  18  ASP18      -0.2456
     14  OD2       -9.7710    1.5960    3.2830 O.co2  18  ASP18      -0.2456
     15  C         -7.6270    2.4530    0.4740 C.2    18  ASP18       0.2622
     16  O         -8.0770    3.4620   -0.0480 O.2    18  ASP18      -0.2715
     17  N         -6.6010    2.4770    1.3340 N.am   19  ILE19      -0.1963
     18  CA        -6.1660    3.6270    2.0790 C.3    19  ILE19       0.1727
     19  CB        -5.0730    3.3500    3.1520 C.3    19  ILE19       0.0290
     20  CG2       -4.5850    4.5470    3.9530 C.3    19  ILE19       0.0023
     21  CG1       -5.6210    2.1420    3.9730 C.3    19  ILE19       0.0022
     22  CD1       -6.7460    2.5740    4.8760 C.3    19  ILE19       0.0001
     23  C         -5.6740    4.7260    1.1170 C.2    19  ILE19       0.2616
     24  O         -5.9640    5.8590    1.4260 O.2    19  ILE19      -0.2715
     25  N         -4.8940    4.3400    0.1060 N.am   20  ILE20      -0.1963
     26  CA        -4.3700    5.1770   -0.9560 C.3    20  ILE20       0.1727
     27  CB        -2.8480    5.4620   -0.8180 C.3    20  ILE20       0.0290
     28  CG2       -2.5210    6.1670    0.5290 C.3    20  ILE20       0.0023
     29  CG1       -1.9270    4.2500   -0.9510 C.3    20  ILE20       0.0022
     30  CD1       -0.4520    4.4090   -1.0350 C.3    20  ILE20       0.0001
     31  C         -4.8260    4.7960   -2.3980 C.2    20  ILE20       0.2617
     32  O         -4.8210    3.6210   -2.7490 O.2    20  ILE20      -0.2715
     33  N         -5.1950    5.7710   -3.1960 N.am   21  TRP21      -0.1941
     34  CA        -5.6960    5.8160   -4.5740 C.3    21  TRP21       0.1982
     35  CB        -7.1930    6.0870   -4.6010 C.3    21  TRP21       0.0394
     36  CG        -8.1480    4.9210   -4.3560 C.3    21  TRP21       0.0475
     37  CD1       -8.4270    4.3170   -3.1580 C.3    21  TRP21       0.1166
     38  NE1       -9.4680    3.4340   -3.3480 N.pl3  21  TRP21      -0.2376
     39  CE2      -10.0400    3.5420   -4.5600 C.ar   21  TRP21       0.0614
     40  CZ2      -11.2420    2.9770   -5.0990 C.ar   21  TRP21       0.0158
     41  CH2      -11.3060    3.0240   -6.5170 C.ar   21  TRP21       0.0013
     42  CZ3      -10.3640    3.7270   -7.2650 C.ar   21  TRP21      -0.0002
     43  CE3       -9.2810    4.3830   -6.7050 C.ar   21  TRP21      -0.0030
     44  CD2       -9.0950    4.3440   -5.3390 C.ar   21  TRP21      -0.0059
     45  C         -4.8510    6.8160   -5.3910 C.2    21  TRP21       0.3842
     46  O         -5.0400    8.0490   -5.1500 O.co2  21  TRP21      -0.2437
     47  OXT       -3.9720    6.3760   -6.1010 O.co2  21  TRP21      -0.2437
@<TRIPOS>BOND
     1    42    43   ar
     2    42    41   ar
     3    43    44   ar
     4    41    40   ar
     5    47    45   ar
     6    45    46   ar
     7    45    34    1
     8    44    39   ar
     9    44    36    1
    10    40    39   ar
    11    35    34    1
    12    35    36    1
    13    34    33    1
    14    39    38    1
    15    36    37    1
    16     5     4    1
    17    38    37    1
    18    33    31   am
    19     8     7    2
    20    32    31    2
    21    31    26    1
    22     2     7    1
    23     2     3    1
    24     2     1    1
    25     4     3    1
    26     4     6    1
    27     7     9   am
    28    30    29    1
    29    26    27    1
    30    26    25    1
    31    29    27    1
    32    27    28    1
    33     9    10    1
    34    16    15    2
    35    25    23   am
    36    10    15    1
    37    10    11    1
    38    15    17   am
    39    23    24    2
    40    23    18    1
    41    17    18    1
    42    13    12   ar
    43    11    12    1
    44    12    14   ar
    45    18    19    1
    46    19    20    1
    47    19    21    1
    48    21    22    1
