@<TRIPOS>MOLECULE
../1EDN/PCA1_17-21_NOBACKBONE.pdb
 26 23 0 0 0
SMALL
GASTEIGER

@<TRIPOS>ATOM
      1  CB        -6.0770   -2.3450   -1.7480 C.3    17  LEU17       0.0000
      2  CG        -7.4170   -3.0590   -2.1890 C.3    17  LEU17       0.0000
      3  CD1       -7.4920   -3.1930   -3.7220 C.3    17  LEU17       0.0000
      4  CD2       -7.5340   -4.4610   -1.6100 C.3    17  LEU17       0.0000
      5  CB        -8.8290    0.4520    1.4200 C.3    18  ASP18       0.1258
      6  CG        -9.9140    1.2760    2.0640 C.2    18  ASP18       0.3654
      7  OD1      -10.8560    1.7240    1.3430 O.co2  18  ASP18      -0.2456
      8  OD2       -9.7710    1.5960    3.2830 O.co2  18  ASP18      -0.2456
      9  CB        -5.0730    3.3500    3.1520 C.3    19  ILE19       0.0000
     10  CG2       -4.5850    4.5470    3.9530 C.3    19  ILE19       0.0000
     11  CG1       -5.6210    2.1420    3.9730 C.3    19  ILE19       0.0000
     12  CD1       -6.7460    2.5740    4.8760 C.3    19  ILE19       0.0000
     13  CB        -2.8480    5.4620   -0.8180 C.3    20  ILE20       0.0000
     14  CG2       -2.5210    6.1670    0.5290 C.3    20  ILE20       0.0000
     15  CG1       -1.9270    4.2500   -0.9510 C.3    20  ILE20       0.0000
     16  CD1       -0.4520    4.4090   -1.0350 C.3    20  ILE20       0.0000
     17  CB        -7.1930    6.0870   -4.6010 C.3    21  TRP21       0.0066
     18  CG        -8.1480    4.9210   -4.3560 C.3    21  TRP21       0.0452
     19  CD1       -8.4270    4.3170   -3.1580 C.3    21  TRP21       0.1165
     20  NE1       -9.4680    3.4340   -3.3480 N.pl3  21  TRP21      -0.2376
     21  CE2      -10.0400    3.5420   -4.5600 C.ar   21  TRP21       0.0614
     22  CZ2      -11.2420    2.9770   -5.0990 C.ar   21  TRP21       0.0158
     23  CH2      -11.3060    3.0240   -6.5170 C.ar   21  TRP21       0.0013
     24  CZ3      -10.3640    3.7270   -7.2650 C.ar   21  TRP21      -0.0002
     25  CE3       -9.2810    4.3830   -6.7050 C.ar   21  TRP21      -0.0030
     26  CD2       -9.0950    4.3440   -5.3390 C.ar   21  TRP21      -0.0059
@<TRIPOS>BOND
     1    24    25   ar
     2    24    23   ar
     3    25    26   ar
     4    23    22   ar
     5    26    21   ar
     6    26    18    1
     7    22    21   ar
     8    17    18    1
     9    21    20    1
    10    18    19    1
    11     3     2    1
    12    20    19    1
    13     2     1    1
    14     2     4    1
    15    16    15    1
    16    15    13    1
    17    13    14    1
    18     7     6   ar
    19     5     6    1
    20     6     8   ar
    21     9    10    1
    22     9    11    1
    23    11    12    1
@<TRIPOS>MOLECULE
104865
 39 42 0 0 0
SMALL
GASTEIGER

@<TRIPOS>ATOM
      1 S          -5.7410    3.5762   -2.8092 S.O2    1  LIG11       0.0736
      2 O          -4.4935    4.2000   -3.2034 O.2     1  LIG11      -0.1499
      3 O          -7.0138    4.1917   -3.1197 O.2     1  LIG11      -0.1499
      4 O          -7.8872    2.1066   -5.1639 O.3     1  LIG11      -0.4435
      5 O         -10.0691    0.3296   -4.5728 O.3     1  LIG11      -0.4715
      6 O          -8.3973    2.0429   -7.7966 O.3     1  LIG11      -0.4914
      7 O         -12.3235   -1.2794   -5.6878 O.3     1  LIG11      -0.3917
      8 N          -5.6980    1.9882   -3.3837 N.pl3   1  LIG11      -0.1963
      9 N          -6.8248    0.4877   -2.0893 N.ar    1  LIG11      -0.2044
     10 N          -8.9962   -0.3292   -2.6191 N.ar    1  LIG11      -0.1866
     11 N          -8.8130   -2.0767   -0.4405 N.ar    1  LIG11      -0.2331
     12 N          -7.0568   -0.7090    0.4247 N.ar    1  LIG11      -0.2331
     13 C          -5.4512    2.9739    3.2945 C.3     1  LIG11      -0.0127
     14 C          -5.5506    3.1092    1.7642 C.ar    1  LIG11      -0.0419
     15 C          -4.6991    4.1932    3.8686 C.3     1  LIG11      -0.0560
     16 C          -4.6824    1.6862    3.6617 C.3     1  LIG11      -0.0560
     17 C          -6.8223    2.9008    4.0041 C.3     1  LIG11      -0.0560
     18 C          -4.3791    3.1235    0.9785 C.ar    1  LIG11      -0.0562
     19 C          -6.7812    3.2416    1.0961 C.ar    1  LIG11      -0.0562
     20 C          -5.6691    3.3635   -1.0434 C.ar    1  LIG11       0.1086
     21 C          -4.4318    3.2526   -0.4121 C.ar    1  LIG11      -0.0348
     22 C          -6.8444    3.3762   -0.2945 C.ar    1  LIG11      -0.0348
     23 C          -6.8910    1.2404   -3.1956 C.ar    1  LIG11       0.1883
     24 C          -7.9713    1.3135   -4.0521 C.ar    1  LIG11       0.2307
     25 C          -9.0055    0.4643   -3.7106 C.ar    1  LIG11       0.2642
     26 C          -7.9074   -0.2728   -1.8220 C.ar    1  LIG11       0.2027
     27 C          -9.0273    2.7364   -5.6161 C.ar    1  LIG11       0.1702
     28 C          -7.9193   -1.0648   -0.5577 C.ar    1  LIG11       0.1978
     29 C         -11.3251    0.0602   -3.9369 C.3     1  LIG11       0.1143
     30 C          -9.2889    2.7054   -6.9915 C.ar    1  LIG11       0.1621
     31 C          -9.8764    3.4468   -4.7586 C.ar    1  LIG11      -0.0157
     32 C         -10.4610    3.2859   -7.4847 C.ar    1  LIG11      -0.0163
     33 C         -11.8229   -1.3205   -4.3509 C.3     1  LIG11       0.0783
     34 C         -11.0350    4.0408   -5.2597 C.ar    1  LIG11      -0.0581
     35 C         -11.3346    3.9466   -6.6179 C.ar    1  LIG11      -0.0581
     36 C          -8.8169   -2.7512    0.7239 C.ar    1  LIG11       0.0315
     37 C          -7.1166   -1.4119    1.5703 C.ar    1  LIG11       0.0315
     38 C          -7.9857   -2.4551    1.7766 C.ar    1  LIG11      -0.0254
     39 C          -8.0854    2.7486   -8.9948 C.3     1  LIG11       0.0790
@<TRIPOS>BOND
     1     1     2    2
     2     1     3    2
     3     1     8    1
     4     1    20    1
     5     4    24    1
     6     4    27    1
     7     5    25    1
     8     5    29    1
     9     6    30    1
    10     6    39    1
    11     7    33    1
    12     8    23    1
    13     9    23   ar
    14     9    26   ar
    15    10    25   ar
    16    10    26   ar
    17    11    28   ar
    18    11    36   ar
    19    12    28   ar
    20    12    37   ar
    21    13    14    1
    22    13    15    1
    23    13    16    1
    24    13    17    1
    25    14    18   ar
    26    14    19   ar
    27    18    21   ar
    28    19    22   ar
    29    20    21   ar
    30    20    22   ar
    31    23    24   ar
    32    24    25   ar
    33    26    28    1
    34    27    30   ar
    35    27    31   ar
    36    29    33    1
    37    30    32   ar
    38    31    34   ar
    39    32    35   ar
    40    34    35   ar
    41    36    38   ar
    42    37    38   ar
@<TRIPOS>MOLECULE
../1EDN/PCA1_17-21.pdb
 47 48 0 0 0
SMALL
GASTEIGER

@<TRIPOS>ATOM
      1  N         -4.6470   -0.3680   -1.6750 N.3    17  LEU17      -0.1231
      2  CA        -5.8920   -0.8550   -2.2480 C.3    17  LEU17       0.1693
      3  CB        -6.0770   -2.3450   -1.7480 C.3    17  LEU17       0.0284
      4  CG        -7.4170   -3.0590   -2.1890 C.3    17  LEU17       0.0019
      5  CD1       -7.4920   -3.1930   -3.7220 C.3    17  LEU17       0.0001
      6  CD2       -7.5340   -4.4610   -1.6100 C.3    17  LEU17       0.0001
      7  C         -7.0080    0.1010   -1.8270 C.2    17  LEU17       0.2592
      8  O         -7.6220    0.6590   -2.7680 O.2    17  LEU17      -0.2718
      9  N         -7.2890    0.1920   -0.5460 N.am   18  ASP18      -0.1960
     10  CA        -8.2730    1.1070    0.1120 C.3    18  ASP18       0.1840
     11  CB        -8.8290    0.4520    1.4200 C.3    18  ASP18       0.1450
     12  CG        -9.9140    1.2760    2.0640 C.2    18  ASP18       0.3671
     13  OD1      -10.8560    1.7240    1.3430 O.co2  18  ASP18      -0.2456
     14  OD2       -9.7710    1.5960    3.2830 O.co2  18  ASP18      -0.2456
     15  C         -7.6270    2.4530    0.4740 C.2    18  ASP18       0.2622
     16  O         -8.0770    3.4620   -0.0480 O.2    18  ASP18      -0.2715
     17  N         -6.6010    2.4770    1.3340 N.am   19  ILE19      -0.1963
     18  CA        -6.1660    3.6270    2.0790 C.3    19  ILE19       0.1727
     19  CB        -5.0730    3.3500    3.1520 C.3    19  ILE19       0.0290
     20  CG2       -4.5850    4.5470    3.9530 C.3    19  ILE19       0.0023
     21  CG1       -5.6210    2.1420    3.9730 C.3    19  ILE19       0.0022
     22  CD1       -6.7460    2.5740    4.8760 C.3    19  ILE19       0.0001
     23  C         -5.6740    4.7260    1.1170 C.2    19  ILE19       0.2616
     24  O         -5.9640    5.8590    1.4260 O.2    19  ILE19      -0.2715
     25  N         -4.8940    4.3400    0.1060 N.am   20  ILE20      -0.1963
     26  CA        -4.3700    5.1770   -0.9560 C.3    20  ILE20       0.1727
     27  CB        -2.8480    5.4620   -0.8180 C.3    20  ILE20       0.0290
     28  CG2       -2.5210    6.1670    0.5290 C.3    20  ILE20       0.0023
     29  CG1       -1.9270    4.2500   -0.9510 C.3    20  ILE20       0.0022
     30  CD1       -0.4520    4.4090   -1.0350 C.3    20  ILE20       0.0001
     31  C         -4.8260    4.7960   -2.3980 C.2    20  ILE20       0.2617
     32  O         -4.8210    3.6210   -2.7490 O.2    20  ILE20      -0.2715
     33  N         -5.1950    5.7710   -3.1960 N.am   21  TRP21      -0.1941
     34  CA        -5.6960    5.8160   -4.5740 C.3    21  TRP21       0.1982
     35  CB        -7.1930    6.0870   -4.6010 C.3    21  TRP21       0.0394
     36  CG        -8.1480    4.9210   -4.3560 C.3    21  TRP21       0.0475
     37  CD1       -8.4270    4.3170   -3.1580 C.3    21  TRP21       0.1166
     38  NE1       -9.4680    3.4340   -3.3480 N.pl3  21  TRP21      -0.2376
     39  CE2      -10.0400    3.5420   -4.5600 C.ar   21  TRP21       0.0614
     40  CZ2      -11.2420    2.9770   -5.0990 C.ar   21  TRP21       0.0158
     41  CH2      -11.3060    3.0240   -6.5170 C.ar   21  TRP21       0.0013
     42  CZ3      -10.3640    3.7270   -7.2650 C.ar   21  TRP21      -0.0002
     43  CE3       -9.2810    4.3830   -6.7050 C.ar   21  TRP21      -0.0030
     44  CD2       -9.0950    4.3440   -5.3390 C.ar   21  TRP21      -0.0059
     45  C         -4.8510    6.8160   -5.3910 C.2    21  TRP21       0.3842
     46  O         -5.0400    8.0490   -5.1500 O.co2  21  TRP21      -0.2437
     47  OXT       -3.9720    6.3760   -6.1010 O.co2  21  TRP21      -0.2437
@<TRIPOS>BOND
     1    42    43   ar
     2    42    41   ar
     3    43    44   ar
     4    41    40   ar
     5    47    45   ar
     6    45    46   ar
     7    45    34    1
     8    44    39   ar
     9    44    36    1
    10    40    39   ar
    11    35    34    1
    12    35    36    1
    13    34    33    1
    14    39    38    1
    15    36    37    1
    16     5     4    1
    17    38    37    1
    18    33    31   am
    19     8     7    2
    20    32    31    2
    21    31    26    1
    22     2     7    1
    23     2     3    1
    24     2     1    1
    25     4     3    1
    26     4     6    1
    27     7     9   am
    28    30    29    1
    29    26    27    1
    30    26    25    1
    31    29    27    1
    32    27    28    1
    33     9    10    1
    34    16    15    2
    35    25    23   am
    36    10    15    1
    37    10    11    1
    38    15    17   am
    39    23    24    2
    40    23    18    1
    41    17    18    1
    42    13    12   ar
    43    11    12    1
    44    12    14   ar
    45    18    19    1
    46    19    20    1
    47    19    21    1
    48    21    22    1
