@<TRIPOS>MOLECULE
../1EDN/PCA1_17-21_NOBACKBONE.pdb
 26 23 0 0 0
SMALL
GASTEIGER

@<TRIPOS>ATOM
      1  CB        -6.0770   -2.3450   -1.7480 C.3    17  LEU17       0.0000
      2  CG        -7.4170   -3.0590   -2.1890 C.3    17  LEU17       0.0000
      3  CD1       -7.4920   -3.1930   -3.7220 C.3    17  LEU17       0.0000
      4  CD2       -7.5340   -4.4610   -1.6100 C.3    17  LEU17       0.0000
      5  CB        -8.8290    0.4520    1.4200 C.3    18  ASP18       0.1258
      6  CG        -9.9140    1.2760    2.0640 C.2    18  ASP18       0.3654
      7  OD1      -10.8560    1.7240    1.3430 O.co2  18  ASP18      -0.2456
      8  OD2       -9.7710    1.5960    3.2830 O.co2  18  ASP18      -0.2456
      9  CB        -5.0730    3.3500    3.1520 C.3    19  ILE19       0.0000
     10  CG2       -4.5850    4.5470    3.9530 C.3    19  ILE19       0.0000
     11  CG1       -5.6210    2.1420    3.9730 C.3    19  ILE19       0.0000
     12  CD1       -6.7460    2.5740    4.8760 C.3    19  ILE19       0.0000
     13  CB        -2.8480    5.4620   -0.8180 C.3    20  ILE20       0.0000
     14  CG2       -2.5210    6.1670    0.5290 C.3    20  ILE20       0.0000
     15  CG1       -1.9270    4.2500   -0.9510 C.3    20  ILE20       0.0000
     16  CD1       -0.4520    4.4090   -1.0350 C.3    20  ILE20       0.0000
     17  CB        -7.1930    6.0870   -4.6010 C.3    21  TRP21       0.0066
     18  CG        -8.1480    4.9210   -4.3560 C.3    21  TRP21       0.0452
     19  CD1       -8.4270    4.3170   -3.1580 C.3    21  TRP21       0.1165
     20  NE1       -9.4680    3.4340   -3.3480 N.pl3  21  TRP21      -0.2376
     21  CE2      -10.0400    3.5420   -4.5600 C.ar   21  TRP21       0.0614
     22  CZ2      -11.2420    2.9770   -5.0990 C.ar   21  TRP21       0.0158
     23  CH2      -11.3060    3.0240   -6.5170 C.ar   21  TRP21       0.0013
     24  CZ3      -10.3640    3.7270   -7.2650 C.ar   21  TRP21      -0.0002
     25  CE3       -9.2810    4.3830   -6.7050 C.ar   21  TRP21      -0.0030
     26  CD2       -9.0950    4.3440   -5.3390 C.ar   21  TRP21      -0.0059
@<TRIPOS>BOND
     1    24    25   ar
     2    24    23   ar
     3    25    26   ar
     4    23    22   ar
     5    26    21   ar
     6    26    18    1
     7    22    21   ar
     8    17    18    1
     9    21    20    1
    10    18    19    1
    11     3     2    1
    12    20    19    1
    13     2     1    1
    14     2     4    1
    15    16    15    1
    16    15    13    1
    17    13    14    1
    18     7     6   ar
    19     5     6    1
    20     6     8   ar
    21     9    10    1
    22     9    11    1
    23    11    12    1
@<TRIPOS>MOLECULE
177236
 51 53 0 0 0
SMALL
GASTEIGER

@<TRIPOS>ATOM
      1 O          -8.3994    0.0778    0.9392 O.3     1  LIG11      -0.3632
      2 O          -8.1285    3.2851   -1.0657 O.3     1  LIG11      -0.4494
      3 O          -5.7626    1.9854   -1.2171 O.co2   1  LIG11      -0.5459
      4 O          -6.8839    0.1238   -1.8747 O.co2   1  LIG11      -0.5459
      5 O          -7.7434    6.2767   -4.5942 O.3     1  LIG11      -0.4794
      6 O         -10.8022    2.6641   -4.7647 O.3     1  LIG11      -0.4794
      7 N          -7.8695    4.7242   -2.8252 N.ar    1  LIG11      -0.1594
      8 N          -9.4127    2.9250   -2.9852 N.ar    1  LIG11      -0.1594
      9 C          -8.3821    1.5285    0.7173 C.3     1  LIG11       0.1609
     10 C          -8.1287    1.8567   -0.7993 C.3     1  LIG11       0.1791
     11 C          -7.2656    2.1005    1.6397 C.ar    1  LIG11      -0.0075
     12 C          -9.7648    2.0246    1.2856 C.ar    1  LIG11      -0.0075
     13 C          -7.0643    3.4877    1.7671 C.ar    1  LIG11      -0.0554
     14 C         -10.3062    1.4064    2.4370 C.ar    1  LIG11      -0.0554
     15 C          -6.4156    1.2558    2.3823 C.ar    1  LIG11      -0.0554
     16 C         -10.5089    3.0785    0.7284 C.ar    1  LIG11      -0.0554
     17 C          -6.7905    1.2590   -1.3104 C.2     1  LIG11       0.0856
     18 C          -9.2676   -0.6985    0.1221 C.3     1  LIG11       0.0382
     19 C          -6.0568    4.0070    2.5855 C.ar    1  LIG11      -0.0614
     20 C         -11.5468    1.7832    2.9615 C.ar    1  LIG11      -0.0614
     21 C          -5.4140    1.7746    3.2090 C.ar    1  LIG11      -0.0614
     22 C         -11.7397    3.4726    1.2669 C.ar    1  LIG11      -0.0614
     23 C          -5.2323    3.1502    3.3087 C.ar    1  LIG11      -0.0617
     24 C         -12.2640    2.8187    2.3753 C.ar    1  LIG11      -0.0617
     25 C          -8.4203    3.5917   -2.3763 C.ar    1  LIG11       0.3249
     26 C          -8.2685    5.1214   -4.0396 C.ar    1  LIG11       0.2240
     27 C          -9.7669    3.3614   -4.1980 C.ar    1  LIG11       0.2240
     28 C          -9.2223    4.4773   -4.7848 C.ar    1  LIG11       0.0617
     29 C          -6.7472    6.8748   -3.7687 C.3     1  LIG11       0.0804
     30 C         -10.5969    2.3639   -6.1403 C.3     1  LIG11       0.0804
     31 H          -8.9426    1.3821   -1.3626 H       1  LIG11       0.0834
     32 H          -7.6793    4.1831    1.2026 H       1  LIG11       0.0621
     33 H          -9.7586    0.5991    2.9176 H       1  LIG11       0.0621
     34 H          -6.5115    0.1757    2.3007 H       1  LIG11       0.0621
     35 H         -10.1577    3.6286   -0.1343 H       1  LIG11       0.0621
     36 H          -9.2889   -1.7095    0.5365 H       1  LIG11       0.0524
     37 H         -10.2903   -0.3136    0.1252 H       1  LIG11       0.0524
     38 H          -8.9076   -0.7794   -0.9019 H       1  LIG11       0.0524
     39 H          -5.9071    5.0810    2.6347 H       1  LIG11       0.0618
     40 H         -11.9448    1.2630    3.8281 H       1  LIG11       0.0618
     41 H          -4.7629    1.0962    3.7516 H       1  LIG11       0.0618
     42 H         -12.2823    4.2940    0.8084 H       1  LIG11       0.0618
     43 H          -4.4376    3.5521    3.9283 H       1  LIG11       0.0618
     44 H         -13.2264    3.1174    2.7797 H       1  LIG11       0.0618
     45 H          -9.5363    4.8607   -5.7421 H       1  LIG11       0.0724
     46 H          -6.3758    7.7621   -4.2896 H       1  LIG11       0.0660
     47 H          -7.1704    7.2043   -2.8140 H       1  LIG11       0.0660
     48 H          -5.8980    6.1994   -3.6146 H       1  LIG11       0.0660
     49 H         -11.2762    1.5505   -6.4105 H       1  LIG11       0.0660
     50 H         -10.8543    3.2288   -6.7626 H       1  LIG11       0.0660
     51 H          -9.5741    2.0312   -6.3438 H       1  LIG11       0.0660
@<TRIPOS>BOND
     1     1     9    1
     2     1    18    1
     3     2    10    1
     4     2    25    1
     5     3    17   ar
     6     4    17   ar
     7     5    26    1
     8     5    29    1
     9     6    27    1
    10     6    30    1
    11     7    25   ar
    12     7    26   ar
    13     8    25   ar
    14     8    27   ar
    15     9    10    1
    16     9    11    1
    17     9    12    1
    18    10    17    1
    19    11    13   ar
    20    11    15   ar
    21    12    14   ar
    22    12    16   ar
    23    13    19   ar
    24    14    20   ar
    25    15    21   ar
    26    16    22   ar
    27    19    23   ar
    28    20    24   ar
    29    21    23   ar
    30    22    24   ar
    31    26    28   ar
    32    27    28   ar
    33    10    31    1
    34    13    32    1
    35    14    33    1
    36    15    34    1
    37    16    35    1
    38    18    36    1
    39    18    37    1
    40    18    38    1
    41    19    39    1
    42    20    40    1
    43    21    41    1
    44    22    42    1
    45    23    43    1
    46    24    44    1
    47    28    45    1
    48    29    46    1
    49    29    47    1
    50    29    48    1
    51    30    49    1
    52    30    50    1
    53    30    51    1
@<TRIPOS>MOLECULE
../1EDN/PCA1_17-21.pdb
 47 48 0 0 0
SMALL
GASTEIGER

@<TRIPOS>ATOM
      1  N         -4.6470   -0.3680   -1.6750 N.3    17  LEU17      -0.1231
      2  CA        -5.8920   -0.8550   -2.2480 C.3    17  LEU17       0.1693
      3  CB        -6.0770   -2.3450   -1.7480 C.3    17  LEU17       0.0284
      4  CG        -7.4170   -3.0590   -2.1890 C.3    17  LEU17       0.0019
      5  CD1       -7.4920   -3.1930   -3.7220 C.3    17  LEU17       0.0001
      6  CD2       -7.5340   -4.4610   -1.6100 C.3    17  LEU17       0.0001
      7  C         -7.0080    0.1010   -1.8270 C.2    17  LEU17       0.2592
      8  O         -7.6220    0.6590   -2.7680 O.2    17  LEU17      -0.2718
      9  N         -7.2890    0.1920   -0.5460 N.am   18  ASP18      -0.1960
     10  CA        -8.2730    1.1070    0.1120 C.3    18  ASP18       0.1840
     11  CB        -8.8290    0.4520    1.4200 C.3    18  ASP18       0.1450
     12  CG        -9.9140    1.2760    2.0640 C.2    18  ASP18       0.3671
     13  OD1      -10.8560    1.7240    1.3430 O.co2  18  ASP18      -0.2456
     14  OD2       -9.7710    1.5960    3.2830 O.co2  18  ASP18      -0.2456
     15  C         -7.6270    2.4530    0.4740 C.2    18  ASP18       0.2622
     16  O         -8.0770    3.4620   -0.0480 O.2    18  ASP18      -0.2715
     17  N         -6.6010    2.4770    1.3340 N.am   19  ILE19      -0.1963
     18  CA        -6.1660    3.6270    2.0790 C.3    19  ILE19       0.1727
     19  CB        -5.0730    3.3500    3.1520 C.3    19  ILE19       0.0290
     20  CG2       -4.5850    4.5470    3.9530 C.3    19  ILE19       0.0023
     21  CG1       -5.6210    2.1420    3.9730 C.3    19  ILE19       0.0022
     22  CD1       -6.7460    2.5740    4.8760 C.3    19  ILE19       0.0001
     23  C         -5.6740    4.7260    1.1170 C.2    19  ILE19       0.2616
     24  O         -5.9640    5.8590    1.4260 O.2    19  ILE19      -0.2715
     25  N         -4.8940    4.3400    0.1060 N.am   20  ILE20      -0.1963
     26  CA        -4.3700    5.1770   -0.9560 C.3    20  ILE20       0.1727
     27  CB        -2.8480    5.4620   -0.8180 C.3    20  ILE20       0.0290
     28  CG2       -2.5210    6.1670    0.5290 C.3    20  ILE20       0.0023
     29  CG1       -1.9270    4.2500   -0.9510 C.3    20  ILE20       0.0022
     30  CD1       -0.4520    4.4090   -1.0350 C.3    20  ILE20       0.0001
     31  C         -4.8260    4.7960   -2.3980 C.2    20  ILE20       0.2617
     32  O         -4.8210    3.6210   -2.7490 O.2    20  ILE20      -0.2715
     33  N         -5.1950    5.7710   -3.1960 N.am   21  TRP21      -0.1941
     34  CA        -5.6960    5.8160   -4.5740 C.3    21  TRP21       0.1982
     35  CB        -7.1930    6.0870   -4.6010 C.3    21  TRP21       0.0394
     36  CG        -8.1480    4.9210   -4.3560 C.3    21  TRP21       0.0475
     37  CD1       -8.4270    4.3170   -3.1580 C.3    21  TRP21       0.1166
     38  NE1       -9.4680    3.4340   -3.3480 N.pl3  21  TRP21      -0.2376
     39  CE2      -10.0400    3.5420   -4.5600 C.ar   21  TRP21       0.0614
     40  CZ2      -11.2420    2.9770   -5.0990 C.ar   21  TRP21       0.0158
     41  CH2      -11.3060    3.0240   -6.5170 C.ar   21  TRP21       0.0013
     42  CZ3      -10.3640    3.7270   -7.2650 C.ar   21  TRP21      -0.0002
     43  CE3       -9.2810    4.3830   -6.7050 C.ar   21  TRP21      -0.0030
     44  CD2       -9.0950    4.3440   -5.3390 C.ar   21  TRP21      -0.0059
     45  C         -4.8510    6.8160   -5.3910 C.2    21  TRP21       0.3842
     46  O         -5.0400    8.0490   -5.1500 O.co2  21  TRP21      -0.2437
     47  OXT       -3.9720    6.3760   -6.1010 O.co2  21  TRP21      -0.2437
@<TRIPOS>BOND
     1    42    43   ar
     2    42    41   ar
     3    43    44   ar
     4    41    40   ar
     5    47    45   ar
     6    45    46   ar
     7    45    34    1
     8    44    39   ar
     9    44    36    1
    10    40    39   ar
    11    35    34    1
    12    35    36    1
    13    34    33    1
    14    39    38    1
    15    36    37    1
    16     5     4    1
    17    38    37    1
    18    33    31   am
    19     8     7    2
    20    32    31    2
    21    31    26    1
    22     2     7    1
    23     2     3    1
    24     2     1    1
    25     4     3    1
    26     4     6    1
    27     7     9   am
    28    30    29    1
    29    26    27    1
    30    26    25    1
    31    29    27    1
    32    27    28    1
    33     9    10    1
    34    16    15    2
    35    25    23   am
    36    10    15    1
    37    10    11    1
    38    15    17   am
    39    23    24    2
    40    23    18    1
    41    17    18    1
    42    13    12   ar
    43    11    12    1
    44    12    14   ar
    45    18    19    1
    46    19    20    1
    47    19    21    1
    48    21    22    1
