@<TRIPOS>MOLECULE
../1EDN/PCA2_17-21_NOBACKBONE.pdb
 26 23 0 0 0
SMALL
GASTEIGER

@<TRIPOS>ATOM
      1  CB        -5.9860   -1.2020   -0.4580 C.3    17  LEU17       0.0000
      2  CG        -7.1280   -2.2100   -0.5390 C.3    17  LEU17       0.0000
      3  CD1       -6.7120   -3.3620   -1.4700 C.3    17  LEU17       0.0000
      4  CD2       -7.4980   -2.5610    0.9130 C.3    17  LEU17       0.0000
      5  CB        -9.6810    1.0560   -1.6740 C.3    18  ASP18       0.1258
      6  CG       -11.0010    1.6360   -2.1090 C.2    18  ASP18       0.3654
      7  OD1      -11.5960    2.3310   -1.2790 O.co2  18  ASP18      -0.2456
      8  OD2      -11.5460    1.2700   -3.1630 O.co2  18  ASP18      -0.2456
      9  CB        -8.4260    4.8620    1.7600 C.3    19  ILE19       0.0000
     10  CG2       -7.7310    6.0060    2.5190 C.3    19  ILE19       0.0000
     11  CG1       -9.9240    4.5740    2.2500 C.3    19  ILE19       0.0000
     12  CD1      -10.9740    5.6950    2.0110 C.3    19  ILE19       0.0000
     13  CB        -3.5230    4.9310   -0.1080 C.3    20  ILE20       0.0000
     14  CG2       -2.1210    5.5060   -0.7390 C.3    20  ILE20       0.0000
     15  CG1       -3.5940    5.4760    1.3470 C.3    20  ILE20       0.0000
     16  CD1       -2.3570    5.1940    2.2260 C.3    20  ILE20       0.0000
     17  CB        -6.6210    3.8650   -5.0310 C.3    21  TRP21       0.0327
     18  CG        -6.7890    3.3770   -6.4480 C.ar   21  TRP21      -0.0013
     19  CD1       -7.1340    4.1960   -7.4760 C.ar   21  TRP21       0.0946
     20  NE1       -7.1740    3.4060   -8.6160 N.ar   21  TRP21      -0.2442
     21  CE2       -6.9360    2.0750   -8.3350 C.ar   21  TRP21       0.0810
     22  CZ2       -6.8300    1.0510   -9.2060 C.ar   21  TRP21       0.0191
     23  CH2       -6.3330   -0.2010   -8.7710 C.ar   21  TRP21       0.0015
     24  CZ3       -5.9560   -0.2520   -7.3640 C.ar   21  TRP21       0.0001
     25  CE3       -6.0150    0.8940   -6.5860 C.ar   21  TRP21       0.0012
     26  CD2       -6.6320    2.0560   -6.9830 C.ar   21  TRP21       0.0152
@<TRIPOS>BOND
     1    22    23   ar
     2    22    21   ar
     3    23    24   ar
     4    20    21   ar
     5    20    19   ar
     6    21    26   ar
     7    19    18   ar
     8    24    25   ar
     9    26    25   ar
    10    26    18   ar
    11    18    17    1
    12     8     6   ar
    13     6     5    1
    14     6     7   ar
    15     3     2    1
    16    14    13    1
    17     2     1    1
    18     2     4    1
    19    13    15    1
    20    15    16    1
    21     9    11    1
    22     9    10    1
    23    12    11    1
@<TRIPOS>MOLECULE
*****
 39 42 0 0 0
SMALL
GASTEIGER

@<TRIPOS>ATOM
      1 C          -7.4327    5.8813   -0.1409 C.ar    1  LIG11       0.0483
      2 C          -8.1266    6.6092   -1.0805 C.ar    1  LIG11       0.0543
      3 C          -7.3604    7.4036   -1.9001 C.ar    1  LIG11       0.0483
      4 N          -6.0160    7.4759   -1.8189 N.ar    1  LIG11      -0.2022
      5 N          -6.0875    5.9117   -0.0137 N.ar    1  LIG11      -0.2022
      6 C          -5.1406    5.9756   -6.6578 C.ar    1  LIG11      -0.0504
      7 C          -4.3516    4.9280   -7.1383 C.ar    1  LIG11      -0.0583
      8 C          -3.6981    4.0597   -6.2513 C.ar    1  LIG11      -0.0535
      9 C          -3.8233    4.1981   -4.8584 C.ar    1  LIG11      -0.0094
     10 C          -4.6133    5.2663   -4.4018 C.ar    1  LIG11      -0.0535
     11 C          -5.2454    6.1527   -5.2796 C.ar    1  LIG11      -0.0583
     12 C          -6.1878   -0.0134   -8.7715 C.ar    1  LIG11      -0.0561
     13 C          -5.7223   -0.1048   -7.4566 C.ar    1  LIG11      -0.0348
     14 C          -6.0047    0.9186   -6.5531 C.ar    1  LIG11       0.1086
     15 C          -6.7676    2.0138   -6.9470 C.ar    1  LIG11      -0.0348
     16 C          -7.2413    2.0898   -8.2620 C.ar    1  LIG11      -0.0561
     17 C          -7.4512    1.1655  -10.6707 C.3     1  LIG11       0.0132
     18 C          -6.9693    1.0782   -9.2041 C.ar    1  LIG11      -0.0394
     19 C          -6.2494    1.5832  -11.5456 C.3     1  LIG11      -0.0537
     20 C          -7.9967   -0.2101  -11.1603 C.3     1  LIG11       0.0533
     21 C          -8.5634    2.2229  -10.8794 C.3     1  LIG11      -0.0537
     22 O          -8.4833   -0.1673  -12.5005 O.3     1  LIG11      -0.3942
     23 S          -5.3912    0.8061   -4.8885 S.O2    1  LIG11       0.0735
     24 O          -5.4397   -0.5937   -4.5150 O.2     1  LIG11      -0.1499
     25 O          -6.0381    1.8265   -4.0965 O.2     1  LIG11      -0.1499
     26 N          -3.7588    1.1865   -5.1476 N.pl3   1  LIG11      -0.1988
     27 C          -3.1811    3.2609   -3.9044 C.ar    1  LIG11       0.0847
     28 C          -2.5311    3.6562   -2.7357 C.ar    1  LIG11       0.2276
     29 N          -1.9714    2.8112   -1.8413 N.ar    1  LIG11      -0.2008
     30 C          -2.0389    1.5116   -2.1305 C.ar    1  LIG11       0.1219
     31 N          -2.5960    0.9891   -3.2212 N.ar    1  LIG11      -0.2186
     32 C          -3.1586    1.8776   -4.0582 C.ar    1  LIG11       0.1524
     33 C          -5.8119    6.9278   -7.6007 C.3     1  LIG11      -0.0397
     34 O          -2.3563    5.0095   -2.5086 O.3     1  LIG11      -0.4724
     35 C          -2.1289    5.3823   -1.1391 C.3     1  LIG11       0.1252
     36 C          -3.4600    5.5445   -0.4028 C.3     1  LIG11       0.1267
     37 O          -4.0680    6.7545   -0.8682 O.3     1  LIG11      -0.4590
     38 C          -5.4396    6.7047   -0.8833 C.ar    1  LIG11       0.3180
     39 BR         -9.9942    6.5223   -1.2385 Br      1  LIG11      -0.0472
@<TRIPOS>BOND
     1     1     2   ar
     2     2     3   ar
     3     2    39    1
     4     3     4   ar
     5     4    38   ar
     6     5     1   ar
     7     6     7   ar
     8     6    33    1
     9     7     8   ar
    10     8     9   ar
    11     9    10   ar
    12    10    11   ar
    13    11     6   ar
    14    12    13   ar
    15    13    14   ar
    16    14    15   ar
    17    15    16   ar
    18    16    18   ar
    19    17    18    1
    20    17    21    1
    21    17    20    1
    22    17    19    1
    23    18    12   ar
    24    20    22    1
    25    23    26    1
    26    23    25    2
    27    23    24    2
    28    23    14    1
    29    26    32    1
    30    27    28   ar
    31    27     9    1
    32    28    29   ar
    33    29    30   ar
    34    30    31   ar
    35    31    32   ar
    36    32    27   ar
    37    34    35    1
    38    34    28    1
    39    35    36    1
    40    36    37    1
    41    37    38    1
    42    38     5   ar
@<TRIPOS>MOLECULE
../1EDN/PCA2_17-21.pdb
 47 48 0 0 0
SMALL
GASTEIGER

@<TRIPOS>ATOM
      1  N         -4.4680    0.3970   -1.5420 N.3    17  LEU17      -0.1231
      2  CA        -5.5730   -0.5090   -1.8150 C.3    17  LEU17       0.1693
      3  CB        -5.9860   -1.2020   -0.4580 C.3    17  LEU17       0.0284
      4  CG        -7.1280   -2.2100   -0.5390 C.3    17  LEU17       0.0019
      5  CD1       -6.7120   -3.3620   -1.4700 C.3    17  LEU17       0.0001
      6  CD2       -7.4980   -2.5610    0.9130 C.3    17  LEU17       0.0001
      7  C         -6.7000    0.2280   -2.5610 C.2    17  LEU17       0.2592
      8  O         -7.1860   -0.2780   -3.5510 O.2    17  LEU17      -0.2718
      9  N         -7.2650    1.2690   -1.9650 N.am   18  ASP18      -0.1960
     10  CA        -8.5260    1.8930   -2.2590 C.3    18  ASP18       0.1840
     11  CB        -9.6810    1.0560   -1.6740 C.3    18  ASP18       0.1450
     12  CG       -11.0010    1.6360   -2.1090 C.2    18  ASP18       0.3671
     13  OD1      -11.5960    2.3310   -1.2790 O.co2  18  ASP18      -0.2456
     14  OD2      -11.5460    1.2700   -3.1630 O.co2  18  ASP18      -0.2456
     15  C         -8.5570    3.3770   -1.7380 C.2    18  ASP18       0.2622
     16  O         -8.6960    4.2620   -2.5680 O.2    18  ASP18      -0.2715
     17  N         -8.4180    3.5730   -0.4160 N.am   19  ILE19      -0.1963
     18  CA        -8.3980    4.9040    0.1930 C.3    19  ILE19       0.1727
     19  CB        -8.4260    4.8620    1.7600 C.3    19  ILE19       0.0290
     20  CG2       -7.7310    6.0060    2.5190 C.3    19  ILE19       0.0023
     21  CG1       -9.9240    4.5740    2.2500 C.3    19  ILE19       0.0022
     22  CD1      -10.9740    5.6950    2.0110 C.3    19  ILE19       0.0001
     23  C         -7.1570    5.7010   -0.3260 C.2    19  ILE19       0.2616
     24  O         -7.3050    6.7970   -0.9200 O.2    19  ILE19      -0.2715
     25  N         -5.9900    5.0720   -0.2260 N.am   20  ILE20      -0.1963
     26  CA        -4.7520    5.3490   -0.9430 C.3    20  ILE20       0.1727
     27  CB        -3.5230    4.9310   -0.1080 C.3    20  ILE20       0.0290
     28  CG2       -2.1210    5.5060   -0.7390 C.3    20  ILE20       0.0023
     29  CG1       -3.5940    5.4760    1.3470 C.3    20  ILE20       0.0022
     30  CD1       -2.3570    5.1940    2.2260 C.3    20  ILE20       0.0001
     31  C         -4.7590    4.7050   -2.3650 C.2    20  ILE20       0.2617
     32  O         -4.2060    3.6200   -2.5900 O.2    20  ILE20      -0.2715
     33  N         -5.4060    5.3330   -3.3880 N.am   21  TRP21      -0.1938
     34  CA        -5.3950    4.7680   -4.7850 C.3    21  TRP21       0.2021
     35  CB        -6.6210    3.8650   -5.0310 C.3    21  TRP21       0.0612
     36  CG        -6.7890    3.3770   -6.4480 C.ar   21  TRP21       0.0007
     37  CD1       -7.1340    4.1960   -7.4760 C.ar   21  TRP21       0.0946
     38  NE1       -7.1740    3.4060   -8.6160 N.ar   21  TRP21      -0.2442
     39  CE2       -6.9360    2.0750   -8.3350 C.ar   21  TRP21       0.0810
     40  CZ2       -6.8300    1.0510   -9.2060 C.ar   21  TRP21       0.0191
     41  CH2       -6.3330   -0.2010   -8.7710 C.ar   21  TRP21       0.0015
     42  CZ3       -5.9560   -0.2520   -7.3640 C.ar   21  TRP21       0.0001
     43  CE3       -6.0150    0.8940   -6.5860 C.ar   21  TRP21       0.0012
     44  CD2       -6.6320    2.0560   -6.9830 C.ar   21  TRP21       0.0152
     45  C         -5.1960    5.8550   -5.8260 C.2    21  TRP21       0.3845
     46  O         -4.1840    5.6720   -6.5070 O.co2  21  TRP21      -0.2437
     47  OXT       -5.9640    6.8330   -6.0170 O.co2  21  TRP21      -0.2437
@<TRIPOS>BOND
     1    40    41   ar
     2    40    39   ar
     3    41    42   ar
     4    38    39   ar
     5    38    37   ar
     6    39    44   ar
     7    37    36   ar
     8    42    43   ar
     9    44    43   ar
    10    44    36   ar
    11    46    45   ar
    12    36    35    1
    13    47    45   ar
    14    45    34    1
    15    35    34    1
    16    34    33    1
    17     8     7    2
    18    33    31   am
    19    14    12   ar
    20    32    31    2
    21    16    15    2
    22     7     9   am
    23     7     2    1
    24    31    26    1
    25    10     9    1
    26    10    15    1
    27    10    11    1
    28    12    11    1
    29    12    13   ar
    30     2     1    1
    31     2     3    1
    32    15    17   am
    33     5     4    1
    34    26    25    1
    35    26    27    1
    36    24    23    2
    37    28    27    1
    38     4     3    1
    39     4     6    1
    40    17    18    1
    41    23    25   am
    42    23    18    1
    43    27    29    1
    44    18    19    1
    45    29    30    1
    46    19    21    1
    47    19    20    1
    48    22    21    1
