@<TRIPOS>MOLECULE
../1EDN/PCA2_17-21_NOBACKBONE.pdb
 26 23 0 0 0
SMALL
GASTEIGER

@<TRIPOS>ATOM
      1  CB        -5.9860   -1.2020   -0.4580 C.3    17  LEU17       0.0000
      2  CG        -7.1280   -2.2100   -0.5390 C.3    17  LEU17       0.0000
      3  CD1       -6.7120   -3.3620   -1.4700 C.3    17  LEU17       0.0000
      4  CD2       -7.4980   -2.5610    0.9130 C.3    17  LEU17       0.0000
      5  CB        -9.6810    1.0560   -1.6740 C.3    18  ASP18       0.1258
      6  CG       -11.0010    1.6360   -2.1090 C.2    18  ASP18       0.3654
      7  OD1      -11.5960    2.3310   -1.2790 O.co2  18  ASP18      -0.2456
      8  OD2      -11.5460    1.2700   -3.1630 O.co2  18  ASP18      -0.2456
      9  CB        -8.4260    4.8620    1.7600 C.3    19  ILE19       0.0000
     10  CG2       -7.7310    6.0060    2.5190 C.3    19  ILE19       0.0000
     11  CG1       -9.9240    4.5740    2.2500 C.3    19  ILE19       0.0000
     12  CD1      -10.9740    5.6950    2.0110 C.3    19  ILE19       0.0000
     13  CB        -3.5230    4.9310   -0.1080 C.3    20  ILE20       0.0000
     14  CG2       -2.1210    5.5060   -0.7390 C.3    20  ILE20       0.0000
     15  CG1       -3.5940    5.4760    1.3470 C.3    20  ILE20       0.0000
     16  CD1       -2.3570    5.1940    2.2260 C.3    20  ILE20       0.0000
     17  CB        -6.6210    3.8650   -5.0310 C.3    21  TRP21       0.0327
     18  CG        -6.7890    3.3770   -6.4480 C.ar   21  TRP21      -0.0013
     19  CD1       -7.1340    4.1960   -7.4760 C.ar   21  TRP21       0.0946
     20  NE1       -7.1740    3.4060   -8.6160 N.ar   21  TRP21      -0.2442
     21  CE2       -6.9360    2.0750   -8.3350 C.ar   21  TRP21       0.0810
     22  CZ2       -6.8300    1.0510   -9.2060 C.ar   21  TRP21       0.0191
     23  CH2       -6.3330   -0.2010   -8.7710 C.ar   21  TRP21       0.0015
     24  CZ3       -5.9560   -0.2520   -7.3640 C.ar   21  TRP21       0.0001
     25  CE3       -6.0150    0.8940   -6.5860 C.ar   21  TRP21       0.0012
     26  CD2       -6.6320    2.0560   -6.9830 C.ar   21  TRP21       0.0152
@<TRIPOS>BOND
     1    22    23   ar
     2    22    21   ar
     3    23    24   ar
     4    20    21   ar
     5    20    19   ar
     6    21    26   ar
     7    19    18   ar
     8    24    25   ar
     9    26    25   ar
    10    26    18   ar
    11    18    17    1
    12     8     6   ar
    13     6     5    1
    14     6     7   ar
    15     3     2    1
    16    14    13    1
    17     2     1    1
    18     2     4    1
    19    13    15    1
    20    15    16    1
    21     9    11    1
    22     9    10    1
    23    12    11    1
@<TRIPOS>MOLECULE
6433095
 64 68 0 0 0
SMALL
GASTEIGER

@<TRIPOS>ATOM
      1 S          -6.7864    3.6562   -5.5125 S.O2    1  LIG11       0.0908
      2 O          -8.7344    2.5382   -2.7357 O.3     1  LIG11      -0.4435
      3 O          -8.8916    4.3670   -0.5380 O.3     1  LIG11      -0.4715
      4 O          -8.1797    4.0313   -5.3479 O.2     1  LIG11      -0.1484
      5 O          -5.7535    4.6548   -5.6852 O.2     1  LIG11      -0.1484
      6 O          -7.7634    1.1942   -0.3923 O.3     1  LIG11      -0.4914
      7 O          -9.8100    4.3454    2.2951 O.3     1  LIG11      -0.3917
      8 N          -6.3677    2.6218   -4.2288 N.pl3   1  LIG11      -0.1950
      9 N          -5.3743    3.8911   -2.5757 N.ar    1  LIG11      -0.2073
     10 N          -6.6018    4.7912   -0.7514 N.ar    1  LIG11      -0.1899
     11 N          -6.5252    1.2588   -6.6652 N.ar    1  LIG11      -0.2351
     12 N          -1.7619    5.6049    0.4561 N.ar    1  LIG11      -0.2552
     13 N          -1.5072    5.1690    3.3037 N.ar    1  LIG11      -0.5621
     14 N          -3.7473    4.9308    3.4972 N.ar    1  LIG11      -0.1535
     15 N          -1.9292    4.9647    4.5560 N.ar    1  LIG11      -0.3597
     16 N          -3.2483    4.8223    4.7197 N.ar    1  LIG11      -0.0878
     17 C          -6.4946    3.2660   -2.9655 C.ar    1  LIG11       0.1882
     18 C          -7.6948    3.3010   -2.2821 C.ar    1  LIG11       0.2307
     19 C          -7.7049    4.1689   -1.2090 C.ar    1  LIG11       0.2641
     20 C          -5.4639    4.5802   -1.4314 C.ar    1  LIG11       0.1659
     21 C          -6.7288    2.5773   -6.9391 C.ar    1  LIG11       0.1969
     22 C          -4.2095    4.9960   -0.7940 C.ar    1  LIG11       0.0227
     23 C          -6.8871    3.1200   -8.2044 C.ar    1  LIG11      -0.0160
     24 C          -9.5469    1.8991   -1.8208 C.ar    1  LIG11       0.1702
     25 C          -4.0803    4.9793    0.6048 C.ar    1  LIG11      -0.0252
     26 C          -6.5965    0.8857   -9.0641 C.ar    1  LIG11      -0.0322
     27 C          -6.8234    2.2482   -9.2853 C.ar    1  LIG11      -0.0541
     28 C          -3.0813    5.3402   -1.5463 C.ar    1  LIG11      -0.0328
     29 C          -8.9039    5.4802    0.3603 C.3     1  LIG11       0.1143
     30 C          -2.8508    5.2636    1.1913 C.ar    1  LIG11       0.0708
     31 C          -6.4501    0.4513   -7.7460 C.ar    1  LIG11       0.0327
     32 C          -9.1101    1.2599   -0.6469 C.ar    1  LIG11       0.1621
     33 C         -10.9055    1.8893   -2.1563 C.ar    1  LIG11      -0.0157
     34 C          -1.9019    5.6404   -0.8858 C.ar    1  LIG11       0.0289
     35 C          -6.4845   -0.0811  -10.2021 C.3     1  LIG11      -0.0383
     36 C         -10.1029    5.3196    1.2918 C.3     1  LIG11       0.0783
     37 C         -10.0517    0.6522    0.1924 C.ar    1  LIG11      -0.0163
     38 C         -11.8362    1.2867   -1.3111 C.ar    1  LIG11      -0.0581
     39 C         -11.4101    0.6765   -0.1337 C.ar    1  LIG11      -0.0581
     40 C          -2.6819    5.1425    2.6425 C.ar    1  LIG11       0.0207
     41 C          -7.4155    1.4083    0.9766 C.3     1  LIG11       0.0790
     42 H         -10.6176    4.2311    2.8232 H       1  LIG11       0.2095
     43 H          -6.9188    1.7672   -4.3065 H       1  LIG11       0.1754
     44 H          -1.2856    4.9124    5.3404 H       1  LIG11       0.1651
     45 H          -7.0556    4.1824   -8.3437 H       1  LIG11       0.0653
     46 H          -4.9282    4.6939    1.2241 H       1  LIG11       0.0646
     47 H          -6.9447    2.6351  -10.2945 H       1  LIG11       0.0622
     48 H          -3.1172    5.3583   -2.6310 H       1  LIG11       0.0640
     49 H          -7.9951    5.5318    0.9701 H       1  LIG11       0.0720
     50 H          -9.0161    6.3953   -0.2323 H       1  LIG11       0.0720
     51 H          -6.2571   -0.5961   -7.5219 H       1  LIG11       0.0833
     52 H         -11.2375    2.3654   -3.0756 H       1  LIG11       0.0655
     53 H          -1.0073    5.9115   -1.4374 H       1  LIG11       0.0830
     54 H          -6.7408    0.3924  -11.1558 H       1  LIG11       0.0278
     55 H          -5.4597   -0.4583  -10.2758 H       1  LIG11       0.0278
     56 H          -7.1691   -0.9226  -10.0555 H       1  LIG11       0.0278
     57 H         -10.9885    4.9843    0.7424 H       1  LIG11       0.0591
     58 H         -10.3184    6.2645    1.7987 H       1  LIG11       0.0591
     59 H          -9.7453    0.1389    1.0981 H       1  LIG11       0.0655
     60 H         -12.8905    1.2903   -1.5734 H       1  LIG11       0.0619
     61 H         -12.1333    0.2041    0.5262 H       1  LIG11       0.0619
     62 H          -6.3646    1.7110    1.0104 H       1  LIG11       0.0660
     63 H          -8.0076    2.2093    1.4339 H       1  LIG11       0.0660
     64 H          -7.5148    0.4793    1.5462 H       1  LIG11       0.0660
@<TRIPOS>BOND
     1     1     4    2
     2     1     5    2
     3     1     8    1
     4     1    21    1
     5     2    18    1
     6     2    24    1
     7     3    19    1
     8     3    29    1
     9     6    32    1
    10     6    41    1
    11     7    36    1
    12     8    17    1
    13     9    17   ar
    14     9    20   ar
    15    10    19   ar
    16    10    20   ar
    17    11    21   ar
    18    11    31   ar
    19    12    30   ar
    20    12    34   ar
    21    13    15   ar
    22    13    40   ar
    23    14    16   ar
    24    14    40   ar
    25    15    16   ar
    26    17    18   ar
    27    18    19   ar
    28    20    22    1
    29    21    23   ar
    30    22    25   ar
    31    22    28   ar
    32    23    27   ar
    33    24    32   ar
    34    24    33   ar
    35    25    30   ar
    36    26    27   ar
    37    26    31   ar
    38    26    35    1
    39    28    34   ar
    40    29    36    1
    41    30    40    1
    42    32    37   ar
    43    33    38   ar
    44    37    39   ar
    45    38    39   ar
    46     7    42    1
    47     8    43    1
    48    15    44    1
    49    23    45    1
    50    25    46    1
    51    27    47    1
    52    28    48    1
    53    29    49    1
    54    29    50    1
    55    31    51    1
    56    33    52    1
    57    34    53    1
    58    35    54    1
    59    35    55    1
    60    35    56    1
    61    36    57    1
    62    36    58    1
    63    37    59    1
    64    38    60    1
    65    39    61    1
    66    41    62    1
    67    41    63    1
    68    41    64    1
@<TRIPOS>MOLECULE
../1EDN/PCA2_17-21.pdb
 47 48 0 0 0
SMALL
GASTEIGER

@<TRIPOS>ATOM
      1  N         -4.4680    0.3970   -1.5420 N.3    17  LEU17      -0.1231
      2  CA        -5.5730   -0.5090   -1.8150 C.3    17  LEU17       0.1693
      3  CB        -5.9860   -1.2020   -0.4580 C.3    17  LEU17       0.0284
      4  CG        -7.1280   -2.2100   -0.5390 C.3    17  LEU17       0.0019
      5  CD1       -6.7120   -3.3620   -1.4700 C.3    17  LEU17       0.0001
      6  CD2       -7.4980   -2.5610    0.9130 C.3    17  LEU17       0.0001
      7  C         -6.7000    0.2280   -2.5610 C.2    17  LEU17       0.2592
      8  O         -7.1860   -0.2780   -3.5510 O.2    17  LEU17      -0.2718
      9  N         -7.2650    1.2690   -1.9650 N.am   18  ASP18      -0.1960
     10  CA        -8.5260    1.8930   -2.2590 C.3    18  ASP18       0.1840
     11  CB        -9.6810    1.0560   -1.6740 C.3    18  ASP18       0.1450
     12  CG       -11.0010    1.6360   -2.1090 C.2    18  ASP18       0.3671
     13  OD1      -11.5960    2.3310   -1.2790 O.co2  18  ASP18      -0.2456
     14  OD2      -11.5460    1.2700   -3.1630 O.co2  18  ASP18      -0.2456
     15  C         -8.5570    3.3770   -1.7380 C.2    18  ASP18       0.2622
     16  O         -8.6960    4.2620   -2.5680 O.2    18  ASP18      -0.2715
     17  N         -8.4180    3.5730   -0.4160 N.am   19  ILE19      -0.1963
     18  CA        -8.3980    4.9040    0.1930 C.3    19  ILE19       0.1727
     19  CB        -8.4260    4.8620    1.7600 C.3    19  ILE19       0.0290
     20  CG2       -7.7310    6.0060    2.5190 C.3    19  ILE19       0.0023
     21  CG1       -9.9240    4.5740    2.2500 C.3    19  ILE19       0.0022
     22  CD1      -10.9740    5.6950    2.0110 C.3    19  ILE19       0.0001
     23  C         -7.1570    5.7010   -0.3260 C.2    19  ILE19       0.2616
     24  O         -7.3050    6.7970   -0.9200 O.2    19  ILE19      -0.2715
     25  N         -5.9900    5.0720   -0.2260 N.am   20  ILE20      -0.1963
     26  CA        -4.7520    5.3490   -0.9430 C.3    20  ILE20       0.1727
     27  CB        -3.5230    4.9310   -0.1080 C.3    20  ILE20       0.0290
     28  CG2       -2.1210    5.5060   -0.7390 C.3    20  ILE20       0.0023
     29  CG1       -3.5940    5.4760    1.3470 C.3    20  ILE20       0.0022
     30  CD1       -2.3570    5.1940    2.2260 C.3    20  ILE20       0.0001
     31  C         -4.7590    4.7050   -2.3650 C.2    20  ILE20       0.2617
     32  O         -4.2060    3.6200   -2.5900 O.2    20  ILE20      -0.2715
     33  N         -5.4060    5.3330   -3.3880 N.am   21  TRP21      -0.1938
     34  CA        -5.3950    4.7680   -4.7850 C.3    21  TRP21       0.2021
     35  CB        -6.6210    3.8650   -5.0310 C.3    21  TRP21       0.0612
     36  CG        -6.7890    3.3770   -6.4480 C.ar   21  TRP21       0.0007
     37  CD1       -7.1340    4.1960   -7.4760 C.ar   21  TRP21       0.0946
     38  NE1       -7.1740    3.4060   -8.6160 N.ar   21  TRP21      -0.2442
     39  CE2       -6.9360    2.0750   -8.3350 C.ar   21  TRP21       0.0810
     40  CZ2       -6.8300    1.0510   -9.2060 C.ar   21  TRP21       0.0191
     41  CH2       -6.3330   -0.2010   -8.7710 C.ar   21  TRP21       0.0015
     42  CZ3       -5.9560   -0.2520   -7.3640 C.ar   21  TRP21       0.0001
     43  CE3       -6.0150    0.8940   -6.5860 C.ar   21  TRP21       0.0012
     44  CD2       -6.6320    2.0560   -6.9830 C.ar   21  TRP21       0.0152
     45  C         -5.1960    5.8550   -5.8260 C.2    21  TRP21       0.3845
     46  O         -4.1840    5.6720   -6.5070 O.co2  21  TRP21      -0.2437
     47  OXT       -5.9640    6.8330   -6.0170 O.co2  21  TRP21      -0.2437
@<TRIPOS>BOND
     1    40    41   ar
     2    40    39   ar
     3    41    42   ar
     4    38    39   ar
     5    38    37   ar
     6    39    44   ar
     7    37    36   ar
     8    42    43   ar
     9    44    43   ar
    10    44    36   ar
    11    46    45   ar
    12    36    35    1
    13    47    45   ar
    14    45    34    1
    15    35    34    1
    16    34    33    1
    17     8     7    2
    18    33    31   am
    19    14    12   ar
    20    32    31    2
    21    16    15    2
    22     7     9   am
    23     7     2    1
    24    31    26    1
    25    10     9    1
    26    10    15    1
    27    10    11    1
    28    12    11    1
    29    12    13   ar
    30     2     1    1
    31     2     3    1
    32    15    17   am
    33     5     4    1
    34    26    25    1
    35    26    27    1
    36    24    23    2
    37    28    27    1
    38     4     3    1
    39     4     6    1
    40    17    18    1
    41    23    25   am
    42    23    18    1
    43    27    29    1
    44    18    19    1
    45    29    30    1
    46    19    21    1
    47    19    20    1
    48    22    21    1
