@<TRIPOS>MOLECULE
../1EDN/PCA2_17-21_NOBACKBONE.pdb
 26 23 0 0 0
SMALL
GASTEIGER

@<TRIPOS>ATOM
      1  CB        -5.9860   -1.2020   -0.4580 C.3    17  LEU17       0.0000
      2  CG        -7.1280   -2.2100   -0.5390 C.3    17  LEU17       0.0000
      3  CD1       -6.7120   -3.3620   -1.4700 C.3    17  LEU17       0.0000
      4  CD2       -7.4980   -2.5610    0.9130 C.3    17  LEU17       0.0000
      5  CB        -9.6810    1.0560   -1.6740 C.3    18  ASP18       0.1258
      6  CG       -11.0010    1.6360   -2.1090 C.2    18  ASP18       0.3654
      7  OD1      -11.5960    2.3310   -1.2790 O.co2  18  ASP18      -0.2456
      8  OD2      -11.5460    1.2700   -3.1630 O.co2  18  ASP18      -0.2456
      9  CB        -8.4260    4.8620    1.7600 C.3    19  ILE19       0.0000
     10  CG2       -7.7310    6.0060    2.5190 C.3    19  ILE19       0.0000
     11  CG1       -9.9240    4.5740    2.2500 C.3    19  ILE19       0.0000
     12  CD1      -10.9740    5.6950    2.0110 C.3    19  ILE19       0.0000
     13  CB        -3.5230    4.9310   -0.1080 C.3    20  ILE20       0.0000
     14  CG2       -2.1210    5.5060   -0.7390 C.3    20  ILE20       0.0000
     15  CG1       -3.5940    5.4760    1.3470 C.3    20  ILE20       0.0000
     16  CD1       -2.3570    5.1940    2.2260 C.3    20  ILE20       0.0000
     17  CB        -6.6210    3.8650   -5.0310 C.3    21  TRP21       0.0327
     18  CG        -6.7890    3.3770   -6.4480 C.ar   21  TRP21      -0.0013
     19  CD1       -7.1340    4.1960   -7.4760 C.ar   21  TRP21       0.0946
     20  NE1       -7.1740    3.4060   -8.6160 N.ar   21  TRP21      -0.2442
     21  CE2       -6.9360    2.0750   -8.3350 C.ar   21  TRP21       0.0810
     22  CZ2       -6.8300    1.0510   -9.2060 C.ar   21  TRP21       0.0191
     23  CH2       -6.3330   -0.2010   -8.7710 C.ar   21  TRP21       0.0015
     24  CZ3       -5.9560   -0.2520   -7.3640 C.ar   21  TRP21       0.0001
     25  CE3       -6.0150    0.8940   -6.5860 C.ar   21  TRP21       0.0012
     26  CD2       -6.6320    2.0560   -6.9830 C.ar   21  TRP21       0.0152
@<TRIPOS>BOND
     1    22    23   ar
     2    22    21   ar
     3    23    24   ar
     4    20    21   ar
     5    20    19   ar
     6    21    26   ar
     7    19    18   ar
     8    24    25   ar
     9    26    25   ar
    10    26    18   ar
    11    18    17    1
    12     8     6   ar
    13     6     5    1
    14     6     7   ar
    15     3     2    1
    16    14    13    1
    17     2     1    1
    18     2     4    1
    19    13    15    1
    20    15    16    1
    21     9    11    1
    22     9    10    1
    23    12    11    1
@<TRIPOS>MOLECULE
9939443
 70 74 0 0 0
SMALL
GASTEIGER

@<TRIPOS>ATOM
      1 S          -8.7549   -2.2417   -5.0493 S.O2    1  LIG11       0.0908
      2 O          -6.9340    0.7408   -6.2327 O.3     1  LIG11      -0.4435
      3 O          -9.9393   -3.0841   -5.1038 O.2     1  LIG11      -0.1484
      4 O          -7.6076   -2.5602   -5.8689 O.2     1  LIG11      -0.1484
      5 O          -5.8419    2.3819   -3.9582 O.3     1  LIG11      -0.4715
      6 O          -6.0440    0.1538   -8.9268 O.3     1  LIG11      -0.4914
      7 O          -3.0812    0.0632   -4.8177 O.3     1  LIG11      -0.3917
      8 N          -9.3195   -0.6931   -5.4768 N.pl3   1  LIG11      -0.1950
      9 N          -7.0831   -1.4619   -3.1250 N.ar    1  LIG11      -0.2351
     10 N          -9.5146    0.6337   -3.6749 N.ar    1  LIG11      -0.2073
     11 N          -7.7884    2.0560   -2.9096 N.ar    1  LIG11      -0.1899
     12 N         -11.5210    2.5438    0.5264 N.ar    1  LIG11      -0.2552
     13 N         -10.7495    4.6853    2.2737 N.ar    1  LIG11      -0.5621
     14 N          -8.6635    4.6992    1.4012 N.ar    1  LIG11      -0.1535
     15 N          -9.9165    5.5486    2.8644 N.ar    1  LIG11      -0.3597
     16 N          -8.6699    5.5888    2.3838 N.ar    1  LIG11      -0.0878
     17 C          -6.5322   -2.1874    0.5882 C.3     1  LIG11      -0.0201
     18 C          -7.1377   -2.1787   -0.8044 C.ar    1  LIG11      -0.0266
     19 C          -7.3684   -1.3367    1.5476 C.3     1  LIG11      -0.0586
     20 C          -5.0647   -1.7454    0.6557 C.3     1  LIG11      -0.0586
     21 C          -8.2039   -2.2029   -3.3360 C.ar    1  LIG11       0.1969
     22 C          -8.2973   -2.9237   -1.0768 C.ar    1  LIG11      -0.0535
     23 C          -6.5935   -1.4609   -1.8650 C.ar    1  LIG11       0.0332
     24 C          -8.8462   -2.9424   -2.3588 C.ar    1  LIG11      -0.0160
     25 C          -8.7573    0.3830   -4.7502 C.ar    1  LIG11       0.1882
     26 C          -7.5463    0.9834   -5.0399 C.ar    1  LIG11       0.2307
     27 C          -7.0536    1.7634   -4.0121 C.ar    1  LIG11       0.2641
     28 C          -9.0039    1.4998   -2.7935 C.ar    1  LIG11       0.1659
     29 C          -9.8481    1.8478   -1.6362 C.ar    1  LIG11       0.0227
     30 C          -6.9036    1.7343   -7.2015 C.ar    1  LIG11       0.1702
     31 C          -9.4543    2.8081   -0.6911 C.ar    1  LIG11      -0.0252
     32 C         -11.1036    1.2470   -1.4509 C.ar    1  LIG11      -0.0328
     33 C          -4.7055    1.8392   -4.6292 C.3     1  LIG11       0.1143
     34 C          -6.4068    1.3949   -8.4745 C.ar    1  LIG11       0.1621
     35 C         -10.3082    3.1336    0.3633 C.ar    1  LIG11       0.0708
     36 C          -7.2293    3.0793   -6.9486 C.ar    1  LIG11      -0.0157
     37 C         -11.8900    1.6191   -0.3760 C.ar    1  LIG11       0.0289
     38 C          -4.3248    0.4188   -4.2229 C.3     1  LIG11       0.0783
     39 C          -6.1753    2.3999   -9.4247 C.ar    1  LIG11      -0.0163
     40 C          -7.0012    4.0695   -7.9098 C.ar    1  LIG11      -0.0581
     41 C          -6.4630    3.7324   -9.1445 C.ar    1  LIG11      -0.0581
     42 C          -9.9306    4.1547    1.3430 C.ar    1  LIG11       0.0207
     43 C          -6.7710   -0.9523   -8.4102 C.3     1  LIG11       0.0790
     44 H          -2.9989   -0.9040   -4.7456 H       1  LIG11       0.2095
     45 H         -10.3330   -0.6991   -5.3824 H       1  LIG11       0.1754
     46 H         -10.2131    6.1436    3.6331 H       1  LIG11       0.1651
     47 H          -6.5551   -3.2272    0.9421 H       1  LIG11       0.0344
     48 H          -7.4075   -0.2907    1.2232 H       1  LIG11       0.0235
     49 H          -8.3981   -1.7041    1.6120 H       1  LIG11       0.0235
     50 H          -6.9454   -1.3631    2.5578 H       1  LIG11       0.0235
     51 H          -4.9472   -0.6813    0.4171 H       1  LIG11       0.0235
     52 H          -4.6624   -1.8974    1.6640 H       1  LIG11       0.0235
     53 H          -4.4420   -2.3206   -0.0385 H       1  LIG11       0.0235
     54 H          -8.7699   -3.5067   -0.2878 H       1  LIG11       0.0622
     55 H          -5.7112   -0.8417   -1.7365 H       1  LIG11       0.0833
     56 H          -9.7273   -3.5340   -2.5791 H       1  LIG11       0.0653
     57 H          -8.4946    3.3099   -0.7888 H       1  LIG11       0.0646
     58 H         -11.4794    0.4978   -2.1418 H       1  LIG11       0.0640
     59 H          -4.7800    1.9447   -5.7130 H       1  LIG11       0.0720
     60 H          -3.8655    2.4943   -4.3647 H       1  LIG11       0.0720
     61 H          -7.6198    3.4122   -5.9924 H       1  LIG11       0.0655
     62 H         -12.8677    1.1737   -0.2135 H       1  LIG11       0.0830
     63 H          -5.0760   -0.3027   -4.5507 H       1  LIG11       0.0591
     64 H          -4.2269    0.3434   -3.1363 H       1  LIG11       0.0591
     65 H          -5.7585    2.1334  -10.3937 H       1  LIG11       0.0655
     66 H          -7.2206    5.1095   -7.6799 H       1  LIG11       0.0619
     67 H          -6.2626    4.5004   -9.8867 H       1  LIG11       0.0619
     68 H          -6.7523   -1.7476   -9.1622 H       1  LIG11       0.0660
     69 H          -6.2609   -1.3267   -7.5208 H       1  LIG11       0.0660
     70 H          -7.8216   -0.7159   -8.2141 H       1  LIG11       0.0660
@<TRIPOS>BOND
     1     1    21    1
     2     1     8    1
     3     1     4    2
     4     1     3    2
     5     2    26    1
     6     2    30    1
     7     5    27    1
     8     5    33    1
     9     6    34    1
    10     6    43    1
    11     7    38    1
    12     8    25    1
    13     9    23   ar
    14     9    21   ar
    15    10    25   ar
    16    10    28   ar
    17    11    27   ar
    18    11    28   ar
    19    12    37   ar
    20    12    35   ar
    21    13    15   ar
    22    13    42   ar
    23    14    42   ar
    24    14    16   ar
    25    15    16   ar
    26    17    18    1
    27    17    20    1
    28    17    19    1
    29    18    23   ar
    30    18    22   ar
    31    21    24   ar
    32    22    24   ar
    33    25    26   ar
    34    26    27   ar
    35    28    29    1
    36    29    31   ar
    37    29    32   ar
    38    30    36   ar
    39    30    34   ar
    40    31    35   ar
    41    32    37   ar
    42    33    38    1
    43    34    39   ar
    44    35    42    1
    45    36    40   ar
    46    39    41   ar
    47    40    41   ar
    48     7    44    1
    49     8    45    1
    50    15    46    1
    51    17    47    1
    52    19    48    1
    53    19    49    1
    54    19    50    1
    55    20    51    1
    56    20    52    1
    57    20    53    1
    58    22    54    1
    59    23    55    1
    60    24    56    1
    61    31    57    1
    62    32    58    1
    63    33    59    1
    64    33    60    1
    65    36    61    1
    66    37    62    1
    67    38    63    1
    68    38    64    1
    69    39    65    1
    70    40    66    1
    71    41    67    1
    72    43    68    1
    73    43    69    1
    74    43    70    1
@<TRIPOS>MOLECULE
../1EDN/PCA2_17-21.pdb
 47 48 0 0 0
SMALL
GASTEIGER

@<TRIPOS>ATOM
      1  N         -4.4680    0.3970   -1.5420 N.3    17  LEU17      -0.1231
      2  CA        -5.5730   -0.5090   -1.8150 C.3    17  LEU17       0.1693
      3  CB        -5.9860   -1.2020   -0.4580 C.3    17  LEU17       0.0284
      4  CG        -7.1280   -2.2100   -0.5390 C.3    17  LEU17       0.0019
      5  CD1       -6.7120   -3.3620   -1.4700 C.3    17  LEU17       0.0001
      6  CD2       -7.4980   -2.5610    0.9130 C.3    17  LEU17       0.0001
      7  C         -6.7000    0.2280   -2.5610 C.2    17  LEU17       0.2592
      8  O         -7.1860   -0.2780   -3.5510 O.2    17  LEU17      -0.2718
      9  N         -7.2650    1.2690   -1.9650 N.am   18  ASP18      -0.1960
     10  CA        -8.5260    1.8930   -2.2590 C.3    18  ASP18       0.1840
     11  CB        -9.6810    1.0560   -1.6740 C.3    18  ASP18       0.1450
     12  CG       -11.0010    1.6360   -2.1090 C.2    18  ASP18       0.3671
     13  OD1      -11.5960    2.3310   -1.2790 O.co2  18  ASP18      -0.2456
     14  OD2      -11.5460    1.2700   -3.1630 O.co2  18  ASP18      -0.2456
     15  C         -8.5570    3.3770   -1.7380 C.2    18  ASP18       0.2622
     16  O         -8.6960    4.2620   -2.5680 O.2    18  ASP18      -0.2715
     17  N         -8.4180    3.5730   -0.4160 N.am   19  ILE19      -0.1963
     18  CA        -8.3980    4.9040    0.1930 C.3    19  ILE19       0.1727
     19  CB        -8.4260    4.8620    1.7600 C.3    19  ILE19       0.0290
     20  CG2       -7.7310    6.0060    2.5190 C.3    19  ILE19       0.0023
     21  CG1       -9.9240    4.5740    2.2500 C.3    19  ILE19       0.0022
     22  CD1      -10.9740    5.6950    2.0110 C.3    19  ILE19       0.0001
     23  C         -7.1570    5.7010   -0.3260 C.2    19  ILE19       0.2616
     24  O         -7.3050    6.7970   -0.9200 O.2    19  ILE19      -0.2715
     25  N         -5.9900    5.0720   -0.2260 N.am   20  ILE20      -0.1963
     26  CA        -4.7520    5.3490   -0.9430 C.3    20  ILE20       0.1727
     27  CB        -3.5230    4.9310   -0.1080 C.3    20  ILE20       0.0290
     28  CG2       -2.1210    5.5060   -0.7390 C.3    20  ILE20       0.0023
     29  CG1       -3.5940    5.4760    1.3470 C.3    20  ILE20       0.0022
     30  CD1       -2.3570    5.1940    2.2260 C.3    20  ILE20       0.0001
     31  C         -4.7590    4.7050   -2.3650 C.2    20  ILE20       0.2617
     32  O         -4.2060    3.6200   -2.5900 O.2    20  ILE20      -0.2715
     33  N         -5.4060    5.3330   -3.3880 N.am   21  TRP21      -0.1938
     34  CA        -5.3950    4.7680   -4.7850 C.3    21  TRP21       0.2021
     35  CB        -6.6210    3.8650   -5.0310 C.3    21  TRP21       0.0612
     36  CG        -6.7890    3.3770   -6.4480 C.ar   21  TRP21       0.0007
     37  CD1       -7.1340    4.1960   -7.4760 C.ar   21  TRP21       0.0946
     38  NE1       -7.1740    3.4060   -8.6160 N.ar   21  TRP21      -0.2442
     39  CE2       -6.9360    2.0750   -8.3350 C.ar   21  TRP21       0.0810
     40  CZ2       -6.8300    1.0510   -9.2060 C.ar   21  TRP21       0.0191
     41  CH2       -6.3330   -0.2010   -8.7710 C.ar   21  TRP21       0.0015
     42  CZ3       -5.9560   -0.2520   -7.3640 C.ar   21  TRP21       0.0001
     43  CE3       -6.0150    0.8940   -6.5860 C.ar   21  TRP21       0.0012
     44  CD2       -6.6320    2.0560   -6.9830 C.ar   21  TRP21       0.0152
     45  C         -5.1960    5.8550   -5.8260 C.2    21  TRP21       0.3845
     46  O         -4.1840    5.6720   -6.5070 O.co2  21  TRP21      -0.2437
     47  OXT       -5.9640    6.8330   -6.0170 O.co2  21  TRP21      -0.2437
@<TRIPOS>BOND
     1    40    41   ar
     2    40    39   ar
     3    41    42   ar
     4    38    39   ar
     5    38    37   ar
     6    39    44   ar
     7    37    36   ar
     8    42    43   ar
     9    44    43   ar
    10    44    36   ar
    11    46    45   ar
    12    36    35    1
    13    47    45   ar
    14    45    34    1
    15    35    34    1
    16    34    33    1
    17     8     7    2
    18    33    31   am
    19    14    12   ar
    20    32    31    2
    21    16    15    2
    22     7     9   am
    23     7     2    1
    24    31    26    1
    25    10     9    1
    26    10    15    1
    27    10    11    1
    28    12    11    1
    29    12    13   ar
    30     2     1    1
    31     2     3    1
    32    15    17   am
    33     5     4    1
    34    26    25    1
    35    26    27    1
    36    24    23    2
    37    28    27    1
    38     4     3    1
    39     4     6    1
    40    17    18    1
    41    23    25   am
    42    23    18    1
    43    27    29    1
    44    18    19    1
    45    29    30    1
    46    19    21    1
    47    19    20    1
    48    22    21    1
