@<TRIPOS>MOLECULE
../1EDN/PCA2_17-21_NOBACKBONE.pdb
 26 23 0 0 0
SMALL
GASTEIGER

@<TRIPOS>ATOM
      1  CB        -5.9860   -1.2020   -0.4580 C.3    17  LEU17       0.0000
      2  CG        -7.1280   -2.2100   -0.5390 C.3    17  LEU17       0.0000
      3  CD1       -6.7120   -3.3620   -1.4700 C.3    17  LEU17       0.0000
      4  CD2       -7.4980   -2.5610    0.9130 C.3    17  LEU17       0.0000
      5  CB        -9.6810    1.0560   -1.6740 C.3    18  ASP18       0.1258
      6  CG       -11.0010    1.6360   -2.1090 C.2    18  ASP18       0.3654
      7  OD1      -11.5960    2.3310   -1.2790 O.co2  18  ASP18      -0.2456
      8  OD2      -11.5460    1.2700   -3.1630 O.co2  18  ASP18      -0.2456
      9  CB        -8.4260    4.8620    1.7600 C.3    19  ILE19       0.0000
     10  CG2       -7.7310    6.0060    2.5190 C.3    19  ILE19       0.0000
     11  CG1       -9.9240    4.5740    2.2500 C.3    19  ILE19       0.0000
     12  CD1      -10.9740    5.6950    2.0110 C.3    19  ILE19       0.0000
     13  CB        -3.5230    4.9310   -0.1080 C.3    20  ILE20       0.0000
     14  CG2       -2.1210    5.5060   -0.7390 C.3    20  ILE20       0.0000
     15  CG1       -3.5940    5.4760    1.3470 C.3    20  ILE20       0.0000
     16  CD1       -2.3570    5.1940    2.2260 C.3    20  ILE20       0.0000
     17  CB        -6.6210    3.8650   -5.0310 C.3    21  TRP21       0.0327
     18  CG        -6.7890    3.3770   -6.4480 C.ar   21  TRP21      -0.0013
     19  CD1       -7.1340    4.1960   -7.4760 C.ar   21  TRP21       0.0946
     20  NE1       -7.1740    3.4060   -8.6160 N.ar   21  TRP21      -0.2442
     21  CE2       -6.9360    2.0750   -8.3350 C.ar   21  TRP21       0.0810
     22  CZ2       -6.8300    1.0510   -9.2060 C.ar   21  TRP21       0.0191
     23  CH2       -6.3330   -0.2010   -8.7710 C.ar   21  TRP21       0.0015
     24  CZ3       -5.9560   -0.2520   -7.3640 C.ar   21  TRP21       0.0001
     25  CE3       -6.0150    0.8940   -6.5860 C.ar   21  TRP21       0.0012
     26  CD2       -6.6320    2.0560   -6.9830 C.ar   21  TRP21       0.0152
@<TRIPOS>BOND
     1    22    23   ar
     2    22    21   ar
     3    23    24   ar
     4    20    21   ar
     5    20    19   ar
     6    21    26   ar
     7    19    18   ar
     8    24    25   ar
     9    26    25   ar
    10    26    18   ar
    11    18    17    1
    12     8     6   ar
    13     6     5    1
    14     6     7   ar
    15     3     2    1
    16    14    13    1
    17     2     1    1
    18     2     4    1
    19    13    15    1
    20    15    16    1
    21     9    11    1
    22     9    10    1
    23    12    11    1
@<TRIPOS>MOLECULE
3047752
 70 74 0 0 0
SMALL
GASTEIGER

@<TRIPOS>ATOM
      1 O         -10.8729    3.3128   -4.8661 O.co2   1  LIG11      -0.5495
      2 O          -9.6889    5.2437   -5.0907 O.co2   1  LIG11      -0.5495
      3 O          -6.8871    3.0291   -9.9054 O.3     1  LIG11      -0.4526
      4 O          -6.2702    0.7118   -9.6295 O.3     1  LIG11      -0.4526
      5 O         -10.8599   -0.1223    0.9514 O.3     1  LIG11      -0.4951
      6 O          -7.3012    6.1057    1.8554 O.co2   1  LIG11      -0.5495
      7 O          -8.8728    5.8078    3.4748 O.co2   1  LIG11      -0.5495
      8 N          -6.1184    3.3876   -1.5677 N.ar    1  LIG11      -0.2556
      9 C          -8.6005    3.2980   -4.2607 C.3     1  LIG11       0.0217
     10 C          -8.3907    3.5557   -2.7339 C.3     1  LIG11       0.0357
     11 C          -7.3390    3.7867   -5.0101 C.3     1  LIG11       0.0199
     12 C          -6.2933    3.6965   -3.9372 C.ar    1  LIG11      -0.0174
     13 C          -6.8579    3.4951   -2.6870 C.ar    1  LIG11       0.0534
     14 C          -9.0953    2.6139   -1.7364 C.ar    1  LIG11      -0.0344
     15 C          -7.0259    2.9195   -6.2292 C.ar    1  LIG11      -0.0356
     16 C          -9.8370    4.0305   -4.7672 C.2     1  LIG11       0.0466
     17 C          -4.9192    3.8411   -4.0591 C.ar    1  LIG11      -0.0546
     18 C          -9.0275    2.7882   -0.3253 C.ar    1  LIG11      -0.0395
     19 C          -9.8612    1.5258   -2.2090 C.ar    1  LIG11      -0.0542
     20 C          -4.7791    3.5381   -1.6817 C.ar    1  LIG11       0.0416
     21 C          -7.1256    3.4712   -7.5173 C.ar    1  LIG11      -0.0124
     22 C          -4.1469    3.7663   -2.9054 C.ar    1  LIG11      -0.0401
     23 C          -6.6634    1.5553   -6.0870 C.ar    1  LIG11      -0.0543
     24 C          -8.3348    3.9680    0.3647 C.3     1  LIG11      -0.0196
     25 C          -9.6036    1.8039    0.5166 C.ar    1  LIG11      -0.0165
     26 C          -3.9939    3.5298   -0.3966 C.3     1  LIG11      -0.0104
     27 C          -9.1972    4.7080    1.4046 C.3     1  LIG11      -0.0003
     28 C          -6.8484    2.6572   -8.5965 C.ar    1  LIG11       0.1665
     29 C         -10.4690    0.5993   -1.3554 C.ar    1  LIG11      -0.0197
     30 C          -6.3938    0.7525   -7.1990 C.ar    1  LIG11      -0.0159
     31 C         -10.3337    0.7278    0.0161 C.ar    1  LIG11       0.1204
     32 C          -6.4938    1.3360   -8.4404 C.ar    1  LIG11       0.1662
     33 C          -3.8135    4.9464    0.1531 C.3     1  LIG11      -0.0479
     34 C         -10.2607    5.5796    0.7416 C.3     1  LIG11      -0.0570
     35 C          -3.0378    4.9370    1.4698 C.3     1  LIG11      -0.0556
     36 C          -8.3735    5.6302    2.3209 C.2     1  LIG11       0.0449
     37 C          -6.5628    1.7831  -10.5475 C.3     1  LIG11       0.2332
     38 C          -2.8439    6.3441    2.0121 C.3     1  LIG11      -0.0653
     39 C         -11.9263   -0.9465    0.5003 C.3     1  LIG11       0.0788
     40 H          -8.7198    2.2295   -4.4668 H       1  LIG11       0.0379
     41 H          -8.7034    4.5824   -2.5002 H       1  LIG11       0.0419
     42 H          -7.3911    4.8401   -5.3102 H       1  LIG11       0.0404
     43 H          -4.4649    4.0313   -5.0248 H       1  LIG11       0.0622
     44 H         -10.0353    1.3776   -3.2709 H       1  LIG11       0.0622
     45 H          -7.4312    4.5033   -7.6608 H       1  LIG11       0.0658
     46 H          -3.0731    3.9054   -2.9549 H       1  LIG11       0.0636
     47 H          -6.6050    1.1146   -5.0914 H       1  LIG11       0.0622
     48 H          -7.4339    3.5707    0.8509 H       1  LIG11       0.0319
     49 H          -7.9930    4.7016   -0.3707 H       1  LIG11       0.0319
     50 H          -9.4954    1.8941    1.5953 H       1  LIG11       0.0657
     51 H          -4.5210    2.9094    0.3388 H       1  LIG11       0.0328
     52 H          -3.0198    3.0546   -0.5647 H       1  LIG11       0.0328
     53 H          -9.7031    3.9940    2.0651 H       1  LIG11       0.0361
     54 H         -11.0316   -0.2073   -1.8097 H       1  LIG11       0.0654
     55 H          -6.1278   -0.2905   -7.0827 H       1  LIG11       0.0655
     56 H          -3.2827    5.5666   -0.5802 H       1  LIG11       0.0269
     57 H          -4.7946    5.4131    0.3079 H       1  LIG11       0.0269
     58 H          -9.8104    6.3155    0.0662 H       1  LIG11       0.0236
     59 H         -10.9593    4.9687    0.1600 H       1  LIG11       0.0236
     60 H         -10.8449    6.1297    1.4871 H       1  LIG11       0.0236
     61 H          -3.5736    4.3355    2.2133 H       1  LIG11       0.0263
     62 H          -2.0566    4.4713    1.3206 H       1  LIG11       0.0263
     63 H          -7.4080    1.4817  -11.1789 H       1  LIG11       0.1166
     64 H          -5.6881    1.9379  -11.1893 H       1  LIG11       0.1166
     65 H          -3.8074    6.8277    2.2026 H       1  LIG11       0.0230
     66 H          -2.2866    6.3142    2.9535 H       1  LIG11       0.0230
     67 H          -2.2824    6.9632    1.3050 H       1  LIG11       0.0230
     68 H         -12.3617   -1.4389    1.3753 H       1  LIG11       0.0660
     69 H         -12.7179   -0.3570    0.0242 H       1  LIG11       0.0660
     70 H         -11.5598   -1.7299   -0.1712 H       1  LIG11       0.0660
@<TRIPOS>BOND
     1     1    16   ar
     2     2    16   ar
     3     3    28    1
     4     3    37    1
     5     4    32    1
     6     4    37    1
     7     5    31    1
     8     5    39    1
     9     6    36   ar
    10     7    36   ar
    11     8    13   ar
    12     8    20   ar
    13     9    10    1
    14     9    11    1
    15     9    16    1
    16    10    13    1
    17    10    14    1
    18    11    12    1
    19    11    15    1
    20    12    13   ar
    21    12    17   ar
    22    14    18   ar
    23    14    19   ar
    24    15    21   ar
    25    15    23   ar
    26    17    22   ar
    27    18    24    1
    28    18    25   ar
    29    19    29   ar
    30    20    22   ar
    31    20    26    1
    32    21    28   ar
    33    23    30   ar
    34    24    27    1
    35    25    31   ar
    36    26    33    1
    37    27    34    1
    38    27    36    1
    39    28    32   ar
    40    29    31   ar
    41    30    32   ar
    42    33    35    1
    43    35    38    1
    44     9    40    1
    45    10    41    1
    46    11    42    1
    47    17    43    1
    48    19    44    1
    49    21    45    1
    50    22    46    1
    51    23    47    1
    52    24    48    1
    53    24    49    1
    54    25    50    1
    55    26    51    1
    56    26    52    1
    57    27    53    1
    58    29    54    1
    59    30    55    1
    60    33    56    1
    61    33    57    1
    62    34    58    1
    63    34    59    1
    64    34    60    1
    65    35    61    1
    66    35    62    1
    67    37    63    1
    68    37    64    1
    69    38    65    1
    70    38    66    1
    71    38    67    1
    72    39    68    1
    73    39    69    1
    74    39    70    1
@<TRIPOS>MOLECULE
../1EDN/PCA2_17-21.pdb
 47 48 0 0 0
SMALL
GASTEIGER

@<TRIPOS>ATOM
      1  N         -4.4680    0.3970   -1.5420 N.3    17  LEU17      -0.1231
      2  CA        -5.5730   -0.5090   -1.8150 C.3    17  LEU17       0.1693
      3  CB        -5.9860   -1.2020   -0.4580 C.3    17  LEU17       0.0284
      4  CG        -7.1280   -2.2100   -0.5390 C.3    17  LEU17       0.0019
      5  CD1       -6.7120   -3.3620   -1.4700 C.3    17  LEU17       0.0001
      6  CD2       -7.4980   -2.5610    0.9130 C.3    17  LEU17       0.0001
      7  C         -6.7000    0.2280   -2.5610 C.2    17  LEU17       0.2592
      8  O         -7.1860   -0.2780   -3.5510 O.2    17  LEU17      -0.2718
      9  N         -7.2650    1.2690   -1.9650 N.am   18  ASP18      -0.1960
     10  CA        -8.5260    1.8930   -2.2590 C.3    18  ASP18       0.1840
     11  CB        -9.6810    1.0560   -1.6740 C.3    18  ASP18       0.1450
     12  CG       -11.0010    1.6360   -2.1090 C.2    18  ASP18       0.3671
     13  OD1      -11.5960    2.3310   -1.2790 O.co2  18  ASP18      -0.2456
     14  OD2      -11.5460    1.2700   -3.1630 O.co2  18  ASP18      -0.2456
     15  C         -8.5570    3.3770   -1.7380 C.2    18  ASP18       0.2622
     16  O         -8.6960    4.2620   -2.5680 O.2    18  ASP18      -0.2715
     17  N         -8.4180    3.5730   -0.4160 N.am   19  ILE19      -0.1963
     18  CA        -8.3980    4.9040    0.1930 C.3    19  ILE19       0.1727
     19  CB        -8.4260    4.8620    1.7600 C.3    19  ILE19       0.0290
     20  CG2       -7.7310    6.0060    2.5190 C.3    19  ILE19       0.0023
     21  CG1       -9.9240    4.5740    2.2500 C.3    19  ILE19       0.0022
     22  CD1      -10.9740    5.6950    2.0110 C.3    19  ILE19       0.0001
     23  C         -7.1570    5.7010   -0.3260 C.2    19  ILE19       0.2616
     24  O         -7.3050    6.7970   -0.9200 O.2    19  ILE19      -0.2715
     25  N         -5.9900    5.0720   -0.2260 N.am   20  ILE20      -0.1963
     26  CA        -4.7520    5.3490   -0.9430 C.3    20  ILE20       0.1727
     27  CB        -3.5230    4.9310   -0.1080 C.3    20  ILE20       0.0290
     28  CG2       -2.1210    5.5060   -0.7390 C.3    20  ILE20       0.0023
     29  CG1       -3.5940    5.4760    1.3470 C.3    20  ILE20       0.0022
     30  CD1       -2.3570    5.1940    2.2260 C.3    20  ILE20       0.0001
     31  C         -4.7590    4.7050   -2.3650 C.2    20  ILE20       0.2617
     32  O         -4.2060    3.6200   -2.5900 O.2    20  ILE20      -0.2715
     33  N         -5.4060    5.3330   -3.3880 N.am   21  TRP21      -0.1938
     34  CA        -5.3950    4.7680   -4.7850 C.3    21  TRP21       0.2021
     35  CB        -6.6210    3.8650   -5.0310 C.3    21  TRP21       0.0612
     36  CG        -6.7890    3.3770   -6.4480 C.ar   21  TRP21       0.0007
     37  CD1       -7.1340    4.1960   -7.4760 C.ar   21  TRP21       0.0946
     38  NE1       -7.1740    3.4060   -8.6160 N.ar   21  TRP21      -0.2442
     39  CE2       -6.9360    2.0750   -8.3350 C.ar   21  TRP21       0.0810
     40  CZ2       -6.8300    1.0510   -9.2060 C.ar   21  TRP21       0.0191
     41  CH2       -6.3330   -0.2010   -8.7710 C.ar   21  TRP21       0.0015
     42  CZ3       -5.9560   -0.2520   -7.3640 C.ar   21  TRP21       0.0001
     43  CE3       -6.0150    0.8940   -6.5860 C.ar   21  TRP21       0.0012
     44  CD2       -6.6320    2.0560   -6.9830 C.ar   21  TRP21       0.0152
     45  C         -5.1960    5.8550   -5.8260 C.2    21  TRP21       0.3845
     46  O         -4.1840    5.6720   -6.5070 O.co2  21  TRP21      -0.2437
     47  OXT       -5.9640    6.8330   -6.0170 O.co2  21  TRP21      -0.2437
@<TRIPOS>BOND
     1    40    41   ar
     2    40    39   ar
     3    41    42   ar
     4    38    39   ar
     5    38    37   ar
     6    39    44   ar
     7    37    36   ar
     8    42    43   ar
     9    44    43   ar
    10    44    36   ar
    11    46    45   ar
    12    36    35    1
    13    47    45   ar
    14    45    34    1
    15    35    34    1
    16    34    33    1
    17     8     7    2
    18    33    31   am
    19    14    12   ar
    20    32    31    2
    21    16    15    2
    22     7     9   am
    23     7     2    1
    24    31    26    1
    25    10     9    1
    26    10    15    1
    27    10    11    1
    28    12    11    1
    29    12    13   ar
    30     2     1    1
    31     2     3    1
    32    15    17   am
    33     5     4    1
    34    26    25    1
    35    26    27    1
    36    24    23    2
    37    28    27    1
    38     4     3    1
    39     4     6    1
    40    17    18    1
    41    23    25   am
    42    23    18    1
    43    27    29    1
    44    18    19    1
    45    29    30    1
    46    19    21    1
    47    19    20    1
    48    22    21    1
