@<TRIPOS>MOLECULE
../1EDN/PCA2_17-21_NOBACKBONE.pdb
 26 23 0 0 0
SMALL
GASTEIGER

@<TRIPOS>ATOM
      1  CB        -5.9860   -1.2020   -0.4580 C.3    17  LEU17       0.0000
      2  CG        -7.1280   -2.2100   -0.5390 C.3    17  LEU17       0.0000
      3  CD1       -6.7120   -3.3620   -1.4700 C.3    17  LEU17       0.0000
      4  CD2       -7.4980   -2.5610    0.9130 C.3    17  LEU17       0.0000
      5  CB        -9.6810    1.0560   -1.6740 C.3    18  ASP18       0.1258
      6  CG       -11.0010    1.6360   -2.1090 C.2    18  ASP18       0.3654
      7  OD1      -11.5960    2.3310   -1.2790 O.co2  18  ASP18      -0.2456
      8  OD2      -11.5460    1.2700   -3.1630 O.co2  18  ASP18      -0.2456
      9  CB        -8.4260    4.8620    1.7600 C.3    19  ILE19       0.0000
     10  CG2       -7.7310    6.0060    2.5190 C.3    19  ILE19       0.0000
     11  CG1       -9.9240    4.5740    2.2500 C.3    19  ILE19       0.0000
     12  CD1      -10.9740    5.6950    2.0110 C.3    19  ILE19       0.0000
     13  CB        -3.5230    4.9310   -0.1080 C.3    20  ILE20       0.0000
     14  CG2       -2.1210    5.5060   -0.7390 C.3    20  ILE20       0.0000
     15  CG1       -3.5940    5.4760    1.3470 C.3    20  ILE20       0.0000
     16  CD1       -2.3570    5.1940    2.2260 C.3    20  ILE20       0.0000
     17  CB        -6.6210    3.8650   -5.0310 C.3    21  TRP21       0.0327
     18  CG        -6.7890    3.3770   -6.4480 C.ar   21  TRP21      -0.0013
     19  CD1       -7.1340    4.1960   -7.4760 C.ar   21  TRP21       0.0946
     20  NE1       -7.1740    3.4060   -8.6160 N.ar   21  TRP21      -0.2442
     21  CE2       -6.9360    2.0750   -8.3350 C.ar   21  TRP21       0.0810
     22  CZ2       -6.8300    1.0510   -9.2060 C.ar   21  TRP21       0.0191
     23  CH2       -6.3330   -0.2010   -8.7710 C.ar   21  TRP21       0.0015
     24  CZ3       -5.9560   -0.2520   -7.3640 C.ar   21  TRP21       0.0001
     25  CE3       -6.0150    0.8940   -6.5860 C.ar   21  TRP21       0.0012
     26  CD2       -6.6320    2.0560   -6.9830 C.ar   21  TRP21       0.0152
@<TRIPOS>BOND
     1    22    23   ar
     2    22    21   ar
     3    23    24   ar
     4    20    21   ar
     5    20    19   ar
     6    21    26   ar
     7    19    18   ar
     8    24    25   ar
     9    26    25   ar
    10    26    18   ar
    11    18    17    1
    12     8     6   ar
    13     6     5    1
    14     6     7   ar
    15     3     2    1
    16    14    13    1
    17     2     1    1
    18     2     4    1
    19    13    15    1
    20    15    16    1
    21     9    11    1
    22     9    10    1
    23    12    11    1
@<TRIPOS>MOLECULE
16219006
 85 88 0 0 0
SMALL
GASTEIGER

@<TRIPOS>ATOM
      1 O          -8.9181    7.2788    0.8674 O.2     1  PRO11      -0.2738
      2 O          -5.6731    4.6110    1.1346 O.2     5  ASP55      -0.2735
      3 O          -8.4774    2.4402    0.8563 O.2     2  VAL22      -0.2738
      4 O          -4.3466    6.0865   -3.1749 O.2     4  TRP44      -0.2738
      5 O          -8.1574    5.1122   -2.8162 O.2     3  LEU33      -0.2738
      6 OD1        -2.2013    4.9071    2.4466 O.co2   5  ASP55      -0.5497
      7 OD2        -1.9450    6.5732    0.9123 O.co2   5  ASP55      -0.5497
      8 N          -5.6600    6.8198    0.6264 N.am    1  PRO11      -0.2884
      9 N          -8.1986    5.3206    1.8092 N.am    2  VAL22      -0.3022
     10 N          -4.5793    4.4981   -1.5271 N.am    5  ASP55      -0.3021
     11 N          -9.3900    3.7923   -0.7509 N.am    3  LEU33      -0.3025
     12 N          -6.6787    3.3681   -2.9407 N.am    4  TRP44      -0.3022
     13 NE1        -6.1506    0.4575   -6.4067 N.ar    4  TRP44      -0.3604
     14 CA         -6.6027    7.1710    1.6869 C.3     1  PRO11       0.1023
     15 CB         -6.5629    8.7017    1.7395 C.3     1  PRO11      -0.0243
     16 CG         -6.1194    9.1007    0.3373 C.3     1  PRO11      -0.0350
     17 CD         -5.1327    8.0050   -0.0277 C.3     1  PRO11       0.0156
     18 C          -8.0239    6.6278    1.4032 C.2     1  PRO11       0.2342
     19 C          -5.1257    5.5539    0.5428 C.2     5  ASP55       0.2369
     20 CA         -9.4277    4.5715    1.5728 C.3     2  VAL22       0.1017
     21 CA         -3.9676    5.2958   -0.4516 C.3     5  ASP55       0.1047
     22 CB         -9.9723    3.9726    2.8883 C.3     2  VAL22      -0.0197
     23 CA         -8.8628    3.0055   -1.8563 C.3     3  LEU33       0.0996
     24 C          -9.0607    3.4785    0.5517 C.2     2  VAL22       0.2342
     25 CB         -2.8587    4.5065    0.2230 C.3     5  ASP55       0.0138
     26 CA         -5.6884    4.1470   -3.6924 C.3     4  TRP44       0.1034
     27 CB         -9.9507    2.5744   -2.8510 C.3     3  LEU33      -0.0236
     28 CG        -10.8349    1.4019   -2.3736 C.3     3  LEU33      -0.0446
     29 C          -4.8582    5.0474   -2.7618 C.2     4  TRP44       0.2343
     30 CB         -4.7192    3.2530   -4.4789 C.3     4  TRP44       0.0013
     31 C          -7.8743    3.9396   -2.5736 C.2     3  LEU33       0.2340
     32 CG1       -11.1858    3.0686    2.6384 C.3     2  VAL22      -0.0605
     33 CG2       -10.3780    5.0847    3.8638 C.3     2  VAL22      -0.0605
     34 CG         -5.4059    2.3203   -5.4344 C.ar    4  TRP44      -0.0201
     35 CG         -2.2783    5.4187    1.2955 C.2     5  ASP55       0.0440
     36 CD1       -11.7925    1.7917   -1.2472 C.3     3  LEU33      -0.0626
     37 CD2       -11.6480    0.8558   -3.5520 C.3     3  LEU33      -0.0626
     38 CD2        -6.1750    2.6780   -6.5899 C.ar    4  TRP44       0.0029
     39 CD1        -5.4119    0.9405   -5.3614 C.ar    4  TRP44       0.0060
     40 CE2        -6.6362    1.4944   -7.1671 C.ar    4  TRP44       0.0467
     41 CE3        -6.5288    3.9009   -7.1971 C.ar    4  TRP44      -0.0523
     42 CZ2        -7.4391    1.4722   -8.3143 C.ar    4  TRP44      -0.0378
     43 CZ3        -7.3346    3.8974   -8.3414 C.ar    4  TRP44      -0.0611
     44 CH2        -7.7830    2.6988   -8.8894 C.ar    4  TRP44      -0.0598
     45 H          -7.3317    4.7783    1.9091 H       2  VAL22       0.1495
     46 H          -5.1843    3.7529   -1.2038 H       5  ASP55       0.1495
     47 H          -9.5508    4.7784   -0.9542 H       3  LEU33       0.1495
     48 H          -6.4596    2.4160   -2.6767 H       4  TRP44       0.1495
     49 HE1        -6.3173   -0.5199   -6.5990 H       4  TRP44       0.1653
     50 HA         -6.2593    6.7541    2.6421 H       1  PRO11       0.0597
     51 HB1        -5.8018    9.0231    2.4616 H       1  PRO11       0.0288
     52 HB2        -7.5121    9.1640    2.0256 H       1  PRO11       0.0288
     53 HG1        -5.6735   10.0982    0.2984 H       1  PRO11       0.0281
     54 HG2        -6.9768    9.0799   -0.3456 H       1  PRO11       0.0281
     55 HD1        -5.0602    7.8588   -1.1080 H       1  PRO11       0.0465
     56 HD2        -4.1392    8.2142    0.3823 H       1  PRO11       0.0465
     57 HA        -10.1877    5.2292    1.1340 H       2  VAL22       0.0597
     58 HA         -3.5815    6.2223   -0.8788 H       5  ASP55       0.0598
     59 HB         -9.1919    3.3685    3.3694 H       2  VAL22       0.0318
     60 HA         -8.3234    2.1271   -1.4862 H       3  LEU33       0.0594
     61 HB1        -2.0718    4.2415   -0.4921 H       5  ASP55       0.0348
     62 HB2        -3.2311    3.5744    0.6648 H       5  ASP55       0.0348
     63 HA         -6.2363    4.8133   -4.3688 H       4  TRP44       0.0598
     64 HB1        -9.4544    2.2689   -3.7827 H       3  LEU33       0.0290
     65 HB2       -10.5841    3.4324   -3.1141 H       3  LEU33       0.0290
     66 HG        -10.1878    0.5923   -2.0132 H       3  LEU33       0.0296
     67 HB1        -4.1092    2.6636   -3.7807 H       4  TRP44       0.0337
     68 HB2        -4.0130    3.8771   -5.0423 H       4  TRP44       0.0337
     69 HG11      -11.9637    3.5938    2.0738 H       2  VAL22       0.0233
     70 HG12      -11.6232    2.7310    3.5842 H       2  VAL22       0.0233
     71 HG13      -10.9051    2.1715    2.0784 H       2  VAL22       0.0233
     72 HG21      -11.1478    5.7313    3.4278 H       2  VAL22       0.0233
     73 HG22       -9.5218    5.7102    4.1345 H       2  VAL22       0.0233
     74 HG23      -10.7803    4.6612    4.7904 H       2  VAL22       0.0233
     75 HD11      -12.3703    2.6857   -1.5045 H       3  LEU33       0.0232
     76 HD12      -11.2549    1.9845   -0.3178 H       3  LEU33       0.0232
     77 HD13      -12.5004    0.9823   -1.0370 H       3  LEU33       0.0232
     78 HD21      -12.3178    1.6201   -3.9605 H       3  LEU33       0.0232
     79 HD22      -12.2586    0.0010   -3.2410 H       3  LEU33       0.0232
     80 HD23      -10.9884    0.5146   -4.3566 H       3  LEU33       0.0232
     81 HD1        -4.9482    0.2620   -4.6569 H       4  TRP44       0.0810
     82 HE3        -6.1863    4.8451   -6.7828 H       4  TRP44       0.0624
     83 HZ2        -7.7873    0.5398   -8.7447 H       4  TRP44       0.0638
     84 HZ3        -7.6118    4.8426   -8.8016 H       4  TRP44       0.0618
     85 HH2        -8.4088    2.7170   -9.7784 H       4  TRP44       0.0618
@<TRIPOS>BOND
     1     1    18    2
     2     2    19    2
     3     3    24    2
     4     4    29    2
     5     5    31    2
     6     6    35   ar
     7     7    35   ar
     8     8    14    1
     9     8    17    1
    10     8    19   am
    11     9    18   am
    12     9    20    1
    13    10    21    1
    14    10    29   am
    15    11    23    1
    16    11    24   am
    17    12    26    1
    18    12    31   am
    19    13    39   ar
    20    13    40   ar
    21    14    15    1
    22    14    18    1
    23    15    16    1
    24    16    17    1
    25    19    21    1
    26    20    22    1
    27    20    24    1
    28    21    25    1
    29    22    32    1
    30    22    33    1
    31    23    27    1
    32    23    31    1
    33    25    35    1
    34    26    29    1
    35    26    30    1
    36    27    28    1
    37    28    36    1
    38    28    37    1
    39    30    34    1
    40    34    38   ar
    41    34    39   ar
    42    38    40   ar
    43    38    41   ar
    44    40    42   ar
    45    41    43   ar
    46    42    44   ar
    47    43    44   ar
    48     9    45    1
    49    10    46    1
    50    11    47    1
    51    12    48    1
    52    13    49    1
    53    14    50    1
    54    15    51    1
    55    15    52    1
    56    16    53    1
    57    16    54    1
    58    17    55    1
    59    17    56    1
    60    20    57    1
    61    21    58    1
    62    22    59    1
    63    23    60    1
    64    25    61    1
    65    25    62    1
    66    26    63    1
    67    27    64    1
    68    27    65    1
    69    28    66    1
    70    30    67    1
    71    30    68    1
    72    32    69    1
    73    32    70    1
    74    32    71    1
    75    33    72    1
    76    33    73    1
    77    33    74    1
    78    36    75    1
    79    36    76    1
    80    36    77    1
    81    37    78    1
    82    37    79    1
    83    37    80    1
    84    39    81    1
    85    41    82    1
    86    42    83    1
    87    43    84    1
    88    44    85    1
@<TRIPOS>MOLECULE
../1EDN/PCA2_17-21.pdb
 47 48 0 0 0
SMALL
GASTEIGER

@<TRIPOS>ATOM
      1  N         -4.4680    0.3970   -1.5420 N.3    17  LEU17      -0.1231
      2  CA        -5.5730   -0.5090   -1.8150 C.3    17  LEU17       0.1693
      3  CB        -5.9860   -1.2020   -0.4580 C.3    17  LEU17       0.0284
      4  CG        -7.1280   -2.2100   -0.5390 C.3    17  LEU17       0.0019
      5  CD1       -6.7120   -3.3620   -1.4700 C.3    17  LEU17       0.0001
      6  CD2       -7.4980   -2.5610    0.9130 C.3    17  LEU17       0.0001
      7  C         -6.7000    0.2280   -2.5610 C.2    17  LEU17       0.2592
      8  O         -7.1860   -0.2780   -3.5510 O.2    17  LEU17      -0.2718
      9  N         -7.2650    1.2690   -1.9650 N.am   18  ASP18      -0.1960
     10  CA        -8.5260    1.8930   -2.2590 C.3    18  ASP18       0.1840
     11  CB        -9.6810    1.0560   -1.6740 C.3    18  ASP18       0.1450
     12  CG       -11.0010    1.6360   -2.1090 C.2    18  ASP18       0.3671
     13  OD1      -11.5960    2.3310   -1.2790 O.co2  18  ASP18      -0.2456
     14  OD2      -11.5460    1.2700   -3.1630 O.co2  18  ASP18      -0.2456
     15  C         -8.5570    3.3770   -1.7380 C.2    18  ASP18       0.2622
     16  O         -8.6960    4.2620   -2.5680 O.2    18  ASP18      -0.2715
     17  N         -8.4180    3.5730   -0.4160 N.am   19  ILE19      -0.1963
     18  CA        -8.3980    4.9040    0.1930 C.3    19  ILE19       0.1727
     19  CB        -8.4260    4.8620    1.7600 C.3    19  ILE19       0.0290
     20  CG2       -7.7310    6.0060    2.5190 C.3    19  ILE19       0.0023
     21  CG1       -9.9240    4.5740    2.2500 C.3    19  ILE19       0.0022
     22  CD1      -10.9740    5.6950    2.0110 C.3    19  ILE19       0.0001
     23  C         -7.1570    5.7010   -0.3260 C.2    19  ILE19       0.2616
     24  O         -7.3050    6.7970   -0.9200 O.2    19  ILE19      -0.2715
     25  N         -5.9900    5.0720   -0.2260 N.am   20  ILE20      -0.1963
     26  CA        -4.7520    5.3490   -0.9430 C.3    20  ILE20       0.1727
     27  CB        -3.5230    4.9310   -0.1080 C.3    20  ILE20       0.0290
     28  CG2       -2.1210    5.5060   -0.7390 C.3    20  ILE20       0.0023
     29  CG1       -3.5940    5.4760    1.3470 C.3    20  ILE20       0.0022
     30  CD1       -2.3570    5.1940    2.2260 C.3    20  ILE20       0.0001
     31  C         -4.7590    4.7050   -2.3650 C.2    20  ILE20       0.2617
     32  O         -4.2060    3.6200   -2.5900 O.2    20  ILE20      -0.2715
     33  N         -5.4060    5.3330   -3.3880 N.am   21  TRP21      -0.1938
     34  CA        -5.3950    4.7680   -4.7850 C.3    21  TRP21       0.2021
     35  CB        -6.6210    3.8650   -5.0310 C.3    21  TRP21       0.0612
     36  CG        -6.7890    3.3770   -6.4480 C.ar   21  TRP21       0.0007
     37  CD1       -7.1340    4.1960   -7.4760 C.ar   21  TRP21       0.0946
     38  NE1       -7.1740    3.4060   -8.6160 N.ar   21  TRP21      -0.2442
     39  CE2       -6.9360    2.0750   -8.3350 C.ar   21  TRP21       0.0810
     40  CZ2       -6.8300    1.0510   -9.2060 C.ar   21  TRP21       0.0191
     41  CH2       -6.3330   -0.2010   -8.7710 C.ar   21  TRP21       0.0015
     42  CZ3       -5.9560   -0.2520   -7.3640 C.ar   21  TRP21       0.0001
     43  CE3       -6.0150    0.8940   -6.5860 C.ar   21  TRP21       0.0012
     44  CD2       -6.6320    2.0560   -6.9830 C.ar   21  TRP21       0.0152
     45  C         -5.1960    5.8550   -5.8260 C.2    21  TRP21       0.3845
     46  O         -4.1840    5.6720   -6.5070 O.co2  21  TRP21      -0.2437
     47  OXT       -5.9640    6.8330   -6.0170 O.co2  21  TRP21      -0.2437
@<TRIPOS>BOND
     1    40    41   ar
     2    40    39   ar
     3    41    42   ar
     4    38    39   ar
     5    38    37   ar
     6    39    44   ar
     7    37    36   ar
     8    42    43   ar
     9    44    43   ar
    10    44    36   ar
    11    46    45   ar
    12    36    35    1
    13    47    45   ar
    14    45    34    1
    15    35    34    1
    16    34    33    1
    17     8     7    2
    18    33    31   am
    19    14    12   ar
    20    32    31    2
    21    16    15    2
    22     7     9   am
    23     7     2    1
    24    31    26    1
    25    10     9    1
    26    10    15    1
    27    10    11    1
    28    12    11    1
    29    12    13   ar
    30     2     1    1
    31     2     3    1
    32    15    17   am
    33     5     4    1
    34    26    25    1
    35    26    27    1
    36    24    23    2
    37    28    27    1
    38     4     3    1
    39     4     6    1
    40    17    18    1
    41    23    25   am
    42    23    18    1
    43    27    29    1
    44    18    19    1
    45    29    30    1
    46    19    21    1
    47    19    20    1
    48    22    21    1
