@<TRIPOS>MOLECULE
../1EDN/PCA2_17-21_NOBACKBONE.pdb
 26 23 0 0 0
SMALL
GASTEIGER

@<TRIPOS>ATOM
      1  CB        -5.9860   -1.2020   -0.4580 C.3    17  LEU17       0.0000
      2  CG        -7.1280   -2.2100   -0.5390 C.3    17  LEU17       0.0000
      3  CD1       -6.7120   -3.3620   -1.4700 C.3    17  LEU17       0.0000
      4  CD2       -7.4980   -2.5610    0.9130 C.3    17  LEU17       0.0000
      5  CB        -9.6810    1.0560   -1.6740 C.3    18  ASP18       0.1258
      6  CG       -11.0010    1.6360   -2.1090 C.2    18  ASP18       0.3654
      7  OD1      -11.5960    2.3310   -1.2790 O.co2  18  ASP18      -0.2456
      8  OD2      -11.5460    1.2700   -3.1630 O.co2  18  ASP18      -0.2456
      9  CB        -8.4260    4.8620    1.7600 C.3    19  ILE19       0.0000
     10  CG2       -7.7310    6.0060    2.5190 C.3    19  ILE19       0.0000
     11  CG1       -9.9240    4.5740    2.2500 C.3    19  ILE19       0.0000
     12  CD1      -10.9740    5.6950    2.0110 C.3    19  ILE19       0.0000
     13  CB        -3.5230    4.9310   -0.1080 C.3    20  ILE20       0.0000
     14  CG2       -2.1210    5.5060   -0.7390 C.3    20  ILE20       0.0000
     15  CG1       -3.5940    5.4760    1.3470 C.3    20  ILE20       0.0000
     16  CD1       -2.3570    5.1940    2.2260 C.3    20  ILE20       0.0000
     17  CB        -6.6210    3.8650   -5.0310 C.3    21  TRP21       0.0327
     18  CG        -6.7890    3.3770   -6.4480 C.ar   21  TRP21      -0.0013
     19  CD1       -7.1340    4.1960   -7.4760 C.ar   21  TRP21       0.0946
     20  NE1       -7.1740    3.4060   -8.6160 N.ar   21  TRP21      -0.2442
     21  CE2       -6.9360    2.0750   -8.3350 C.ar   21  TRP21       0.0810
     22  CZ2       -6.8300    1.0510   -9.2060 C.ar   21  TRP21       0.0191
     23  CH2       -6.3330   -0.2010   -8.7710 C.ar   21  TRP21       0.0015
     24  CZ3       -5.9560   -0.2520   -7.3640 C.ar   21  TRP21       0.0001
     25  CE3       -6.0150    0.8940   -6.5860 C.ar   21  TRP21       0.0012
     26  CD2       -6.6320    2.0560   -6.9830 C.ar   21  TRP21       0.0152
@<TRIPOS>BOND
     1    22    23   ar
     2    22    21   ar
     3    23    24   ar
     4    20    21   ar
     5    20    19   ar
     6    21    26   ar
     7    19    18   ar
     8    24    25   ar
     9    26    25   ar
    10    26    18   ar
    11    18    17    1
    12     8     6   ar
    13     6     5    1
    14     6     7   ar
    15     3     2    1
    16    14    13    1
    17     2     1    1
    18     2     4    1
    19    13    15    1
    20    15    16    1
    21     9    11    1
    22     9    10    1
    23    12    11    1
@<TRIPOS>MOLECULE
159594
 75 78 0 0 0
SMALL
GASTEIGER

@<TRIPOS>ATOM
      1 O          -9.9784    5.0819   -6.2792 O.co2   1  LIG11      -0.5493
      2 O         -10.1437    5.5133   -4.0551 O.co2   1  LIG11      -0.5493
      3 O          -5.4276   -0.0653   -7.5241 O.3     1  LIG11      -0.4526
      4 O          -6.8608    5.8681   -1.9008 O.2     1  LIG11      -0.2697
      5 O          -6.2693    0.4988   -9.7145 O.3     1  LIG11      -0.4526
      6 O         -11.8887   -0.4053   -0.8332 O.3     1  LIG11      -0.4951
      7 N          -7.0341    3.2920   -3.2242 N.4     1  LIG11       0.2481
      8 N          -5.8177    5.1118   -0.0024 N.am    1  LIG11      -0.2971
      9 C          -8.7990    3.7125   -4.7882 C.3     1  LIG11       0.0574
     10 C          -7.4621    4.0435   -5.4705 C.3     1  LIG11       0.0378
     11 C          -8.5456    3.5608   -3.2877 C.3     1  LIG11       0.0143
     12 C          -6.4523    4.1312   -4.3338 C.3     1  LIG11      -0.0230
     13 C          -7.1295    3.0603   -6.5887 C.ar    1  LIG11      -0.0347
     14 C          -9.4136    2.4622   -2.6605 C.ar    1  LIG11       0.0011
     15 C          -6.3793    3.5048   -1.8602 C.3     1  LIG11       0.0468
     16 C          -9.7347    4.8843   -5.0617 C.2     1  LIG11       0.0513
     17 C          -6.3787    1.8874   -6.4151 C.ar    1  LIG11      -0.0125
     18 C          -6.3806    4.9275   -1.2685 C.2     1  LIG11       0.2608
     19 C          -7.6318    3.3606   -7.8828 C.ar    1  LIG11      -0.0544
     20 C         -10.8051    2.6656   -2.6095 C.ar    1  LIG11      -0.0498
     21 C          -8.9234    1.2665   -2.1120 C.ar    1  LIG11      -0.0498
     22 C          -6.1432    1.0928   -7.5234 C.ar    1  LIG11       0.1665
     23 C          -7.3759    2.5388   -8.9848 C.ar    1  LIG11      -0.0159
     24 C          -6.6220    1.4100   -8.7717 C.ar    1  LIG11       0.1662
     25 C         -11.6725    1.7302   -2.0302 C.ar    1  LIG11      -0.0195
     26 C          -9.7904    0.3430   -1.5097 C.ar    1  LIG11      -0.0195
     27 C          -5.0907    4.0775    0.7468 C.3     1  LIG11       0.0148
     28 C          -5.9304    6.4486    0.6077 C.3     1  LIG11       0.0148
     29 C         -11.1638    0.5694   -1.4605 C.ar    1  LIG11       0.1201
     30 C          -3.6280    3.9021    0.3202 C.3     1  LIG11      -0.0374
     31 C          -6.8038    6.4894    1.8665 C.3     1  LIG11      -0.0374
     32 C          -5.5178   -0.4372   -8.9173 C.3     1  LIG11       0.2332
     33 C          -2.6900    5.0709    0.6286 C.3     1  LIG11      -0.0545
     34 C          -8.2371    6.0165    1.6238 C.3     1  LIG11      -0.0545
     35 C          -2.5749    5.3921    2.1108 C.3     1  LIG11      -0.0652
     36 C          -9.0671    6.1104    2.8953 C.3     1  LIG11      -0.0652
     37 C         -13.2907   -0.1873   -0.7232 C.3     1  LIG11       0.0788
     38 H          -6.9246    2.3173   -3.5067 H       1  LIG11       0.2045
     39 H          -9.2591    2.8106   -5.2136 H       1  LIG11       0.0427
     40 H          -7.4593    5.0390   -5.9386 H       1  LIG11       0.0409
     41 H          -8.6943    4.4712   -2.7017 H       1  LIG11       0.0911
     42 H          -6.3655    5.1644   -3.9940 H       1  LIG11       0.0821
     43 H          -5.4538    3.7487   -4.5644 H       1  LIG11       0.0821
     44 H          -6.8894    2.8364   -1.1641 H       1  LIG11       0.0913
     45 H          -5.3481    3.1683   -1.9912 H       1  LIG11       0.0913
     46 H          -5.9756    1.5764   -5.4622 H       1  LIG11       0.0658
     47 H          -8.2475    4.2513   -8.0315 H       1  LIG11       0.0622
     48 H         -11.2476    3.5745   -3.0254 H       1  LIG11       0.0623
     49 H          -7.8717    1.0075   -2.1198 H       1  LIG11       0.0623
     50 H          -7.7663    2.7840   -9.9660 H       1  LIG11       0.0655
     51 H         -12.7344    1.9530   -2.0413 H       1  LIG11       0.0654
     52 H          -9.3882   -0.5692   -1.0711 H       1  LIG11       0.0654
     53 H          -5.1606    4.2776    1.8189 H       1  LIG11       0.0464
     54 H          -5.6050    3.1238    0.5913 H       1  LIG11       0.0464
     55 H          -4.9242    6.7971    0.8544 H       1  LIG11       0.0464
     56 H          -6.3294    7.1698   -0.1132 H       1  LIG11       0.0464
     57 H          -3.2360    3.0056    0.8167 H       1  LIG11       0.0280
     58 H          -3.5756    3.7045   -0.7563 H       1  LIG11       0.0280
     59 H          -6.3515    5.8887    2.6632 H       1  LIG11       0.0280
     60 H          -6.8222    7.5229    2.2356 H       1  LIG11       0.0280
     61 H          -4.5034   -0.5098   -9.3261 H       1  LIG11       0.1166
     62 H          -5.9960   -1.4215   -8.9882 H       1  LIG11       0.1166
     63 H          -1.6907    4.8131    0.2558 H       1  LIG11       0.0263
     64 H          -2.9984    5.9635    0.0750 H       1  LIG11       0.0263
     65 H          -8.7037    6.6244    0.8399 H       1  LIG11       0.0263
     66 H          -8.2411    4.9769    1.2772 H       1  LIG11       0.0263
     67 H          -2.2656    4.5099    2.6807 H       1  LIG11       0.0230
     68 H          -1.8259    6.1751    2.2672 H       1  LIG11       0.0230
     69 H          -3.5201    5.7536    2.5237 H       1  LIG11       0.0230
     70 H          -9.1181    7.1429    3.2556 H       1  LIG11       0.0230
     71 H         -10.0887    5.7641    2.7089 H       1  LIG11       0.0230
     72 H          -8.6383    5.4909    3.6891 H       1  LIG11       0.0230
     73 H         -13.7143   -1.0157   -0.1472 H       1  LIG11       0.0660
     74 H         -13.5092    0.7389   -0.1780 H       1  LIG11       0.0660
     75 H         -13.7657   -0.1871   -1.7090 H       1  LIG11       0.0660
@<TRIPOS>BOND
     1     1    16   ar
     2     2    16   ar
     3     3    22    1
     4     3    32    1
     5     4    18    2
     6     5    24    1
     7     5    32    1
     8     6    29    1
     9     6    37    1
    10     7    11    1
    11     7    12    1
    12     7    15    1
    13     8    18   am
    14     8    27    1
    15     8    28    1
    16     9    10    1
    17     9    11    1
    18     9    16    1
    19    10    12    1
    20    10    13    1
    21    11    14    1
    22    13    17   ar
    23    13    19   ar
    24    14    20   ar
    25    14    21   ar
    26    15    18    1
    27    17    22   ar
    28    19    23   ar
    29    20    25   ar
    30    21    26   ar
    31    22    24   ar
    32    23    24   ar
    33    25    29   ar
    34    26    29   ar
    35    27    30    1
    36    28    31    1
    37    30    33    1
    38    31    34    1
    39    33    35    1
    40    34    36    1
    41     7    38    1
    42     9    39    1
    43    10    40    1
    44    11    41    1
    45    12    42    1
    46    12    43    1
    47    15    44    1
    48    15    45    1
    49    17    46    1
    50    19    47    1
    51    20    48    1
    52    21    49    1
    53    23    50    1
    54    25    51    1
    55    26    52    1
    56    27    53    1
    57    27    54    1
    58    28    55    1
    59    28    56    1
    60    30    57    1
    61    30    58    1
    62    31    59    1
    63    31    60    1
    64    32    61    1
    65    32    62    1
    66    33    63    1
    67    33    64    1
    68    34    65    1
    69    34    66    1
    70    35    67    1
    71    35    68    1
    72    35    69    1
    73    36    70    1
    74    36    71    1
    75    36    72    1
    76    37    73    1
    77    37    74    1
    78    37    75    1
@<TRIPOS>MOLECULE
../1EDN/PCA2_17-21.pdb
 47 48 0 0 0
SMALL
GASTEIGER

@<TRIPOS>ATOM
      1  N         -4.4680    0.3970   -1.5420 N.3    17  LEU17      -0.1231
      2  CA        -5.5730   -0.5090   -1.8150 C.3    17  LEU17       0.1693
      3  CB        -5.9860   -1.2020   -0.4580 C.3    17  LEU17       0.0284
      4  CG        -7.1280   -2.2100   -0.5390 C.3    17  LEU17       0.0019
      5  CD1       -6.7120   -3.3620   -1.4700 C.3    17  LEU17       0.0001
      6  CD2       -7.4980   -2.5610    0.9130 C.3    17  LEU17       0.0001
      7  C         -6.7000    0.2280   -2.5610 C.2    17  LEU17       0.2592
      8  O         -7.1860   -0.2780   -3.5510 O.2    17  LEU17      -0.2718
      9  N         -7.2650    1.2690   -1.9650 N.am   18  ASP18      -0.1960
     10  CA        -8.5260    1.8930   -2.2590 C.3    18  ASP18       0.1840
     11  CB        -9.6810    1.0560   -1.6740 C.3    18  ASP18       0.1450
     12  CG       -11.0010    1.6360   -2.1090 C.2    18  ASP18       0.3671
     13  OD1      -11.5960    2.3310   -1.2790 O.co2  18  ASP18      -0.2456
     14  OD2      -11.5460    1.2700   -3.1630 O.co2  18  ASP18      -0.2456
     15  C         -8.5570    3.3770   -1.7380 C.2    18  ASP18       0.2622
     16  O         -8.6960    4.2620   -2.5680 O.2    18  ASP18      -0.2715
     17  N         -8.4180    3.5730   -0.4160 N.am   19  ILE19      -0.1963
     18  CA        -8.3980    4.9040    0.1930 C.3    19  ILE19       0.1727
     19  CB        -8.4260    4.8620    1.7600 C.3    19  ILE19       0.0290
     20  CG2       -7.7310    6.0060    2.5190 C.3    19  ILE19       0.0023
     21  CG1       -9.9240    4.5740    2.2500 C.3    19  ILE19       0.0022
     22  CD1      -10.9740    5.6950    2.0110 C.3    19  ILE19       0.0001
     23  C         -7.1570    5.7010   -0.3260 C.2    19  ILE19       0.2616
     24  O         -7.3050    6.7970   -0.9200 O.2    19  ILE19      -0.2715
     25  N         -5.9900    5.0720   -0.2260 N.am   20  ILE20      -0.1963
     26  CA        -4.7520    5.3490   -0.9430 C.3    20  ILE20       0.1727
     27  CB        -3.5230    4.9310   -0.1080 C.3    20  ILE20       0.0290
     28  CG2       -2.1210    5.5060   -0.7390 C.3    20  ILE20       0.0023
     29  CG1       -3.5940    5.4760    1.3470 C.3    20  ILE20       0.0022
     30  CD1       -2.3570    5.1940    2.2260 C.3    20  ILE20       0.0001
     31  C         -4.7590    4.7050   -2.3650 C.2    20  ILE20       0.2617
     32  O         -4.2060    3.6200   -2.5900 O.2    20  ILE20      -0.2715
     33  N         -5.4060    5.3330   -3.3880 N.am   21  TRP21      -0.1938
     34  CA        -5.3950    4.7680   -4.7850 C.3    21  TRP21       0.2021
     35  CB        -6.6210    3.8650   -5.0310 C.3    21  TRP21       0.0612
     36  CG        -6.7890    3.3770   -6.4480 C.ar   21  TRP21       0.0007
     37  CD1       -7.1340    4.1960   -7.4760 C.ar   21  TRP21       0.0946
     38  NE1       -7.1740    3.4060   -8.6160 N.ar   21  TRP21      -0.2442
     39  CE2       -6.9360    2.0750   -8.3350 C.ar   21  TRP21       0.0810
     40  CZ2       -6.8300    1.0510   -9.2060 C.ar   21  TRP21       0.0191
     41  CH2       -6.3330   -0.2010   -8.7710 C.ar   21  TRP21       0.0015
     42  CZ3       -5.9560   -0.2520   -7.3640 C.ar   21  TRP21       0.0001
     43  CE3       -6.0150    0.8940   -6.5860 C.ar   21  TRP21       0.0012
     44  CD2       -6.6320    2.0560   -6.9830 C.ar   21  TRP21       0.0152
     45  C         -5.1960    5.8550   -5.8260 C.2    21  TRP21       0.3845
     46  O         -4.1840    5.6720   -6.5070 O.co2  21  TRP21      -0.2437
     47  OXT       -5.9640    6.8330   -6.0170 O.co2  21  TRP21      -0.2437
@<TRIPOS>BOND
     1    40    41   ar
     2    40    39   ar
     3    41    42   ar
     4    38    39   ar
     5    38    37   ar
     6    39    44   ar
     7    37    36   ar
     8    42    43   ar
     9    44    43   ar
    10    44    36   ar
    11    46    45   ar
    12    36    35    1
    13    47    45   ar
    14    45    34    1
    15    35    34    1
    16    34    33    1
    17     8     7    2
    18    33    31   am
    19    14    12   ar
    20    32    31    2
    21    16    15    2
    22     7     9   am
    23     7     2    1
    24    31    26    1
    25    10     9    1
    26    10    15    1
    27    10    11    1
    28    12    11    1
    29    12    13   ar
    30     2     1    1
    31     2     3    1
    32    15    17   am
    33     5     4    1
    34    26    25    1
    35    26    27    1
    36    24    23    2
    37    28    27    1
    38     4     3    1
    39     4     6    1
    40    17    18    1
    41    23    25   am
    42    23    18    1
    43    27    29    1
    44    18    19    1
    45    29    30    1
    46    19    21    1
    47    19    20    1
    48    22    21    1
