@<TRIPOS>MOLECULE
../1EDN/PCA2_17-21_NOBACKBONE.pdb
 26 23 0 0 0
SMALL
GASTEIGER

@<TRIPOS>ATOM
      1  CB        -5.9860   -1.2020   -0.4580 C.3    17  LEU17       0.0000
      2  CG        -7.1280   -2.2100   -0.5390 C.3    17  LEU17       0.0000
      3  CD1       -6.7120   -3.3620   -1.4700 C.3    17  LEU17       0.0000
      4  CD2       -7.4980   -2.5610    0.9130 C.3    17  LEU17       0.0000
      5  CB        -9.6810    1.0560   -1.6740 C.3    18  ASP18       0.1258
      6  CG       -11.0010    1.6360   -2.1090 C.2    18  ASP18       0.3654
      7  OD1      -11.5960    2.3310   -1.2790 O.co2  18  ASP18      -0.2456
      8  OD2      -11.5460    1.2700   -3.1630 O.co2  18  ASP18      -0.2456
      9  CB        -8.4260    4.8620    1.7600 C.3    19  ILE19       0.0000
     10  CG2       -7.7310    6.0060    2.5190 C.3    19  ILE19       0.0000
     11  CG1       -9.9240    4.5740    2.2500 C.3    19  ILE19       0.0000
     12  CD1      -10.9740    5.6950    2.0110 C.3    19  ILE19       0.0000
     13  CB        -3.5230    4.9310   -0.1080 C.3    20  ILE20       0.0000
     14  CG2       -2.1210    5.5060   -0.7390 C.3    20  ILE20       0.0000
     15  CG1       -3.5940    5.4760    1.3470 C.3    20  ILE20       0.0000
     16  CD1       -2.3570    5.1940    2.2260 C.3    20  ILE20       0.0000
     17  CB        -6.6210    3.8650   -5.0310 C.3    21  TRP21       0.0327
     18  CG        -6.7890    3.3770   -6.4480 C.ar   21  TRP21      -0.0013
     19  CD1       -7.1340    4.1960   -7.4760 C.ar   21  TRP21       0.0946
     20  NE1       -7.1740    3.4060   -8.6160 N.ar   21  TRP21      -0.2442
     21  CE2       -6.9360    2.0750   -8.3350 C.ar   21  TRP21       0.0810
     22  CZ2       -6.8300    1.0510   -9.2060 C.ar   21  TRP21       0.0191
     23  CH2       -6.3330   -0.2010   -8.7710 C.ar   21  TRP21       0.0015
     24  CZ3       -5.9560   -0.2520   -7.3640 C.ar   21  TRP21       0.0001
     25  CE3       -6.0150    0.8940   -6.5860 C.ar   21  TRP21       0.0012
     26  CD2       -6.6320    2.0560   -6.9830 C.ar   21  TRP21       0.0152
@<TRIPOS>BOND
     1    22    23   ar
     2    22    21   ar
     3    23    24   ar
     4    20    21   ar
     5    20    19   ar
     6    21    26   ar
     7    19    18   ar
     8    24    25   ar
     9    26    25   ar
    10    26    18   ar
    11    18    17    1
    12     8     6   ar
    13     6     5    1
    14     6     7   ar
    15     3     2    1
    16    14    13    1
    17     2     1    1
    18     2     4    1
    19    13    15    1
    20    15    16    1
    21     9    11    1
    22     9    10    1
    23    12    11    1
@<TRIPOS>MOLECULE
156690
 70 73 0 0 0
SMALL
GASTEIGER

@<TRIPOS>ATOM
      1 S          -7.5341    4.4542   -5.2565 S.O2    1  LIG11       0.0741
      2 O         -10.0770    5.5993    1.3205 O.2     1  LIG11      -0.2756
      3 O          -7.0046    5.4343   -4.3330 O.2     1  LIG11      -0.1499
      4 O          -8.3574    4.8919   -6.3636 O.2     1  LIG11      -0.1499
      5 O          -3.8278    5.3242    1.2372 O.2     1  LIG11      -0.4436
      6 O          -6.5709    1.8681   -8.9207 O.2     1  LIG11      -0.3578
      7 N          -8.4777    3.9656    1.1366 N.am    1  LIG11      -0.3002
      8 N          -6.2080    3.5915   -5.8937 N.pl3   1  LIG11      -0.1965
      9 N          -2.3950    5.2957   -0.5085 N.ar    1  LIG11      -0.2175
     10 N          -6.2902    3.0060   -8.1891 N.ar    1  LIG11      -0.0614
     11 C          -9.9882    5.7606    4.2347 C.3     1  LIG11      -0.0295
     12 C          -9.1701    4.7446    3.3946 C.3     1  LIG11       0.0290
     13 C          -9.5802    5.5853    5.7140 C.3     1  LIG11      -0.0596
     14 C         -11.4961    5.4809    4.1201 C.3     1  LIG11      -0.0596
     15 C          -9.6889    7.2165    3.8380 C.3     1  LIG11      -0.0596
     16 C          -9.3068    4.8172    1.8721 C.2     1  LIG11       0.2161
     17 C          -8.5180    4.0939   -0.3328 C.3     1  LIG11       0.0400
     18 C          -7.1514    3.9430   -0.9902 C.ar    1  LIG11      -0.0216
     19 C          -6.9431    3.3023   -2.2388 C.ar    1  LIG11      -0.0113
     20 C          -8.0526    2.7535   -3.0584 C.ar    1  LIG11       0.0090
     21 C          -7.9754    2.7110    1.6920 C.3     1  LIG11       0.0035
     22 C          -6.0502    4.5380   -0.3261 C.ar    1  LIG11      -0.0442
     23 C          -8.4344    3.2170   -4.3388 C.ar    1  LIG11       0.1162
     24 C          -5.6136    3.1860   -2.6929 C.ar    1  LIG11      -0.0529
     25 C          -4.7423    4.4426   -0.8086 C.ar    1  LIG11       0.0372
     26 C          -4.5360    3.7536   -2.0011 C.ar    1  LIG11      -0.0489
     27 C          -8.8011    1.6779   -2.5298 C.ar    1  LIG11      -0.0521
     28 C          -9.5797    2.7036   -4.9840 C.ar    1  LIG11      -0.0345
     29 C          -9.9274    1.1617   -3.1814 C.ar    1  LIG11      -0.0611
     30 C          -3.6188    5.0314   -0.0888 C.ar    1  LIG11       0.2271
     31 C         -10.3285    1.6884   -4.4000 C.ar    1  LIG11      -0.0599
     32 C          -6.4465    2.6642   -6.9095 C.ar    1  LIG11       0.1837
     33 C          -6.7036    1.2739   -6.7691 C.ar    1  LIG11       0.0342
     34 C          -6.8140    0.8364   -8.0728 C.ar    1  LIG11       0.1390
     35 C          -6.7986    0.4312   -5.5582 C.3     1  LIG11      -0.0330
     36 C          -2.6367    5.8277    1.6604 C.ar    1  LIG11       0.1125
     37 C          -1.7737    5.8237    0.5953 C.ar    1  LIG11       0.0663
     38 C          -7.0998   -0.4756   -8.6856 C.3     1  LIG11      -0.0034
     39 H          -5.5635    4.3173   -6.2136 H       1  LIG11       0.1753
     40 H          -8.1048    4.8844    3.6224 H       1  LIG11       0.0364
     41 H          -9.4538    3.7321    3.7082 H       1  LIG11       0.0364
     42 H          -9.7652    4.5622    6.0594 H       1  LIG11       0.0235
     43 H          -8.5149    5.7997    5.8583 H       1  LIG11       0.0235
     44 H         -10.1444    6.2632    6.3649 H       1  LIG11       0.0235
     45 H         -11.7285    4.4511    4.4148 H       1  LIG11       0.0235
     46 H         -12.0704    6.1485    4.7727 H       1  LIG11       0.0235
     47 H         -11.8656    5.6266    3.1010 H       1  LIG11       0.0235
     48 H          -8.6111    7.4133    3.8438 H       1  LIG11       0.0235
     49 H         -10.0704    7.4659    2.8440 H       1  LIG11       0.0235
     50 H         -10.1581    7.9178    4.5380 H       1  LIG11       0.0235
     51 H          -9.2391    3.3466   -0.6669 H       1  LIG11       0.0514
     52 H          -8.9112    5.0738   -0.6255 H       1  LIG11       0.0514
     53 H          -7.6675    2.8284    2.7332 H       1  LIG11       0.0429
     54 H          -8.7749    1.9662    1.6417 H       1  LIG11       0.0429
     55 H          -7.1104    2.3493    1.1311 H       1  LIG11       0.0429
     56 H          -6.2294    5.0874    0.5987 H       1  LIG11       0.0628
     57 H          -5.3886    2.6620   -3.6169 H       1  LIG11       0.0624
     58 H          -3.5309    3.6615   -2.4093 H       1  LIG11       0.0625
     59 H          -8.5190    1.2440   -1.5698 H       1  LIG11       0.0624
     60 H          -9.8930    3.0851   -5.9558 H       1  LIG11       0.0637
     61 H         -10.4971    0.3558   -2.7241 H       1  LIG11       0.0618
     62 H         -11.2111    1.3018   -4.9022 H       1  LIG11       0.0618
     63 H          -6.3790    0.9272   -4.6826 H       1  LIG11       0.0280
     64 H          -7.8390    0.1671   -5.3522 H       1  LIG11       0.0280
     65 H          -6.2401   -0.5013   -5.6934 H       1  LIG11       0.0280
     66 H          -2.5788    6.1280    2.6957 H       1  LIG11       0.1046
     67 H          -0.7481    6.1631    0.5643 H       1  LIG11       0.0862
     68 H          -7.0258   -0.4365   -9.7764 H       1  LIG11       0.0309
     69 H          -6.3931   -1.2295   -8.3243 H       1  LIG11       0.0309
     70 H          -8.1110   -0.8037   -8.4242 H       1  LIG11       0.0309
@<TRIPOS>BOND
     1     1     3    2
     2     1     4    2
     3     1     8    1
     4     1    23    1
     5     2    16    2
     6     5    30   ar
     7     5    36   ar
     8     6    10   ar
     9     6    34   ar
    10     7    16   am
    11     7    17    1
    12     7    21    1
    13     8    32    1
    14     9    30   ar
    15     9    37   ar
    16    10    32   ar
    17    11    12    1
    18    11    13    1
    19    11    14    1
    20    11    15    1
    21    12    16    1
    22    17    18    1
    23    18    19   ar
    24    18    22   ar
    25    19    20    1
    26    19    24   ar
    27    20    23   ar
    28    20    27   ar
    29    22    25   ar
    30    23    28   ar
    31    24    26   ar
    32    25    26   ar
    33    25    30    1
    34    27    29   ar
    35    28    31   ar
    36    29    31   ar
    37    32    33   ar
    38    33    34   ar
    39    33    35    1
    40    34    38    1
    41    36    37   ar
    42     8    39    1
    43    12    40    1
    44    12    41    1
    45    13    42    1
    46    13    43    1
    47    13    44    1
    48    14    45    1
    49    14    46    1
    50    14    47    1
    51    15    48    1
    52    15    49    1
    53    15    50    1
    54    17    51    1
    55    17    52    1
    56    21    53    1
    57    21    54    1
    58    21    55    1
    59    22    56    1
    60    24    57    1
    61    26    58    1
    62    27    59    1
    63    28    60    1
    64    29    61    1
    65    31    62    1
    66    35    63    1
    67    35    64    1
    68    35    65    1
    69    36    66    1
    70    37    67    1
    71    38    68    1
    72    38    69    1
    73    38    70    1
@<TRIPOS>MOLECULE
../1EDN/PCA2_17-21.pdb
 47 48 0 0 0
SMALL
GASTEIGER

@<TRIPOS>ATOM
      1  N         -4.4680    0.3970   -1.5420 N.3    17  LEU17      -0.1231
      2  CA        -5.5730   -0.5090   -1.8150 C.3    17  LEU17       0.1693
      3  CB        -5.9860   -1.2020   -0.4580 C.3    17  LEU17       0.0284
      4  CG        -7.1280   -2.2100   -0.5390 C.3    17  LEU17       0.0019
      5  CD1       -6.7120   -3.3620   -1.4700 C.3    17  LEU17       0.0001
      6  CD2       -7.4980   -2.5610    0.9130 C.3    17  LEU17       0.0001
      7  C         -6.7000    0.2280   -2.5610 C.2    17  LEU17       0.2592
      8  O         -7.1860   -0.2780   -3.5510 O.2    17  LEU17      -0.2718
      9  N         -7.2650    1.2690   -1.9650 N.am   18  ASP18      -0.1960
     10  CA        -8.5260    1.8930   -2.2590 C.3    18  ASP18       0.1840
     11  CB        -9.6810    1.0560   -1.6740 C.3    18  ASP18       0.1450
     12  CG       -11.0010    1.6360   -2.1090 C.2    18  ASP18       0.3671
     13  OD1      -11.5960    2.3310   -1.2790 O.co2  18  ASP18      -0.2456
     14  OD2      -11.5460    1.2700   -3.1630 O.co2  18  ASP18      -0.2456
     15  C         -8.5570    3.3770   -1.7380 C.2    18  ASP18       0.2622
     16  O         -8.6960    4.2620   -2.5680 O.2    18  ASP18      -0.2715
     17  N         -8.4180    3.5730   -0.4160 N.am   19  ILE19      -0.1963
     18  CA        -8.3980    4.9040    0.1930 C.3    19  ILE19       0.1727
     19  CB        -8.4260    4.8620    1.7600 C.3    19  ILE19       0.0290
     20  CG2       -7.7310    6.0060    2.5190 C.3    19  ILE19       0.0023
     21  CG1       -9.9240    4.5740    2.2500 C.3    19  ILE19       0.0022
     22  CD1      -10.9740    5.6950    2.0110 C.3    19  ILE19       0.0001
     23  C         -7.1570    5.7010   -0.3260 C.2    19  ILE19       0.2616
     24  O         -7.3050    6.7970   -0.9200 O.2    19  ILE19      -0.2715
     25  N         -5.9900    5.0720   -0.2260 N.am   20  ILE20      -0.1963
     26  CA        -4.7520    5.3490   -0.9430 C.3    20  ILE20       0.1727
     27  CB        -3.5230    4.9310   -0.1080 C.3    20  ILE20       0.0290
     28  CG2       -2.1210    5.5060   -0.7390 C.3    20  ILE20       0.0023
     29  CG1       -3.5940    5.4760    1.3470 C.3    20  ILE20       0.0022
     30  CD1       -2.3570    5.1940    2.2260 C.3    20  ILE20       0.0001
     31  C         -4.7590    4.7050   -2.3650 C.2    20  ILE20       0.2617
     32  O         -4.2060    3.6200   -2.5900 O.2    20  ILE20      -0.2715
     33  N         -5.4060    5.3330   -3.3880 N.am   21  TRP21      -0.1938
     34  CA        -5.3950    4.7680   -4.7850 C.3    21  TRP21       0.2021
     35  CB        -6.6210    3.8650   -5.0310 C.3    21  TRP21       0.0612
     36  CG        -6.7890    3.3770   -6.4480 C.ar   21  TRP21       0.0007
     37  CD1       -7.1340    4.1960   -7.4760 C.ar   21  TRP21       0.0946
     38  NE1       -7.1740    3.4060   -8.6160 N.ar   21  TRP21      -0.2442
     39  CE2       -6.9360    2.0750   -8.3350 C.ar   21  TRP21       0.0810
     40  CZ2       -6.8300    1.0510   -9.2060 C.ar   21  TRP21       0.0191
     41  CH2       -6.3330   -0.2010   -8.7710 C.ar   21  TRP21       0.0015
     42  CZ3       -5.9560   -0.2520   -7.3640 C.ar   21  TRP21       0.0001
     43  CE3       -6.0150    0.8940   -6.5860 C.ar   21  TRP21       0.0012
     44  CD2       -6.6320    2.0560   -6.9830 C.ar   21  TRP21       0.0152
     45  C         -5.1960    5.8550   -5.8260 C.2    21  TRP21       0.3845
     46  O         -4.1840    5.6720   -6.5070 O.co2  21  TRP21      -0.2437
     47  OXT       -5.9640    6.8330   -6.0170 O.co2  21  TRP21      -0.2437
@<TRIPOS>BOND
     1    40    41   ar
     2    40    39   ar
     3    41    42   ar
     4    38    39   ar
     5    38    37   ar
     6    39    44   ar
     7    37    36   ar
     8    42    43   ar
     9    44    43   ar
    10    44    36   ar
    11    46    45   ar
    12    36    35    1
    13    47    45   ar
    14    45    34    1
    15    35    34    1
    16    34    33    1
    17     8     7    2
    18    33    31   am
    19    14    12   ar
    20    32    31    2
    21    16    15    2
    22     7     9   am
    23     7     2    1
    24    31    26    1
    25    10     9    1
    26    10    15    1
    27    10    11    1
    28    12    11    1
    29    12    13   ar
    30     2     1    1
    31     2     3    1
    32    15    17   am
    33     5     4    1
    34    26    25    1
    35    26    27    1
    36    24    23    2
    37    28    27    1
    38     4     3    1
    39     4     6    1
    40    17    18    1
    41    23    25   am
    42    23    18    1
    43    27    29    1
    44    18    19    1
    45    29    30    1
    46    19    21    1
    47    19    20    1
    48    22    21    1
