@<TRIPOS>MOLECULE
../1EDN/PCA2_17-21_NOBACKBONE.pdb
 26 23 0 0 0
SMALL
GASTEIGER

@<TRIPOS>ATOM
      1  CB        -5.9860   -1.2020   -0.4580 C.3    17  LEU17       0.0000
      2  CG        -7.1280   -2.2100   -0.5390 C.3    17  LEU17       0.0000
      3  CD1       -6.7120   -3.3620   -1.4700 C.3    17  LEU17       0.0000
      4  CD2       -7.4980   -2.5610    0.9130 C.3    17  LEU17       0.0000
      5  CB        -9.6810    1.0560   -1.6740 C.3    18  ASP18       0.1258
      6  CG       -11.0010    1.6360   -2.1090 C.2    18  ASP18       0.3654
      7  OD1      -11.5960    2.3310   -1.2790 O.co2  18  ASP18      -0.2456
      8  OD2      -11.5460    1.2700   -3.1630 O.co2  18  ASP18      -0.2456
      9  CB        -8.4260    4.8620    1.7600 C.3    19  ILE19       0.0000
     10  CG2       -7.7310    6.0060    2.5190 C.3    19  ILE19       0.0000
     11  CG1       -9.9240    4.5740    2.2500 C.3    19  ILE19       0.0000
     12  CD1      -10.9740    5.6950    2.0110 C.3    19  ILE19       0.0000
     13  CB        -3.5230    4.9310   -0.1080 C.3    20  ILE20       0.0000
     14  CG2       -2.1210    5.5060   -0.7390 C.3    20  ILE20       0.0000
     15  CG1       -3.5940    5.4760    1.3470 C.3    20  ILE20       0.0000
     16  CD1       -2.3570    5.1940    2.2260 C.3    20  ILE20       0.0000
     17  CB        -6.6210    3.8650   -5.0310 C.3    21  TRP21       0.0327
     18  CG        -6.7890    3.3770   -6.4480 C.ar   21  TRP21      -0.0013
     19  CD1       -7.1340    4.1960   -7.4760 C.ar   21  TRP21       0.0946
     20  NE1       -7.1740    3.4060   -8.6160 N.ar   21  TRP21      -0.2442
     21  CE2       -6.9360    2.0750   -8.3350 C.ar   21  TRP21       0.0810
     22  CZ2       -6.8300    1.0510   -9.2060 C.ar   21  TRP21       0.0191
     23  CH2       -6.3330   -0.2010   -8.7710 C.ar   21  TRP21       0.0015
     24  CZ3       -5.9560   -0.2520   -7.3640 C.ar   21  TRP21       0.0001
     25  CE3       -6.0150    0.8940   -6.5860 C.ar   21  TRP21       0.0012
     26  CD2       -6.6320    2.0560   -6.9830 C.ar   21  TRP21       0.0152
@<TRIPOS>BOND
     1    22    23   ar
     2    22    21   ar
     3    23    24   ar
     4    20    21   ar
     5    20    19   ar
     6    21    26   ar
     7    19    18   ar
     8    24    25   ar
     9    26    25   ar
    10    26    18   ar
    11    18    17    1
    12     8     6   ar
    13     6     5    1
    14     6     7   ar
    15     3     2    1
    16    14    13    1
    17     2     1    1
    18     2     4    1
    19    13    15    1
    20    15    16    1
    21     9    11    1
    22     9    10    1
    23    12    11    1
@<TRIPOS>MOLECULE
156690
 38 41 0 0 0
SMALL
GASTEIGER

@<TRIPOS>ATOM
      1 S          -4.1832    4.1645   -9.0750 S.O2    1  LIG11       0.0741
      2 O          -9.1649    1.6993   -4.3552 O.2     1  LIG11      -0.2756
      3 O          -3.8057    2.8655   -8.5809 O.2     1  LIG11      -0.1499
      4 O          -3.1924    5.2182   -9.1558 O.2     1  LIG11      -0.1499
      5 O          -6.2641   -2.3604   -6.0560 O.2     1  LIG11      -0.4436
      6 O          -3.4728    4.1656  -13.7270 O.2     1  LIG11      -0.3578
      7 N          -6.9746    1.8389   -3.6931 N.am    1  LIG11      -0.3002
      8 N          -4.9490    4.0536  -10.5793 N.pl3   1  LIG11      -0.1965
      9 N          -5.6463   -2.5734   -8.2180 N.ar    1  LIG11      -0.2175
     10 N          -4.1736    4.7255  -12.6811 N.ar    1  LIG11      -0.0614
     11 C          -9.5883    0.7030   -1.4334 C.3     1  LIG11      -0.0295
     12 C          -8.5684    0.2842   -2.5216 C.3     1  LIG11       0.0290
     13 C         -11.0164    0.7586   -2.0059 C.3     1  LIG11      -0.0596
     14 C          -9.2341    2.0650   -0.8173 C.3     1  LIG11      -0.0596
     15 C          -9.5666   -0.3596   -0.3151 C.3     1  LIG11      -0.0596
     16 C          -8.2714    1.3438   -3.5822 C.2     1  LIG11       0.2161
     17 C          -6.6461    2.6442   -4.8796 C.3     1  LIG11       0.0400
     18 C          -6.5271    1.8703   -6.1922 C.ar    1  LIG11      -0.0216
     19 C          -6.5515    2.5272   -7.4565 C.ar    1  LIG11      -0.0113
     20 C          -6.5917    4.0048   -7.5883 C.ar    1  LIG11       0.0090
     21 C          -5.9012    1.6316   -2.7326 C.3     1  LIG11       0.0035
     22 C          -6.3553    0.4672   -6.1575 C.ar    1  LIG11      -0.0442
     23 C          -5.5660    4.8137   -8.1304 C.ar    1  LIG11       0.1162
     24 C          -6.5446    1.7280   -8.6154 C.ar    1  LIG11      -0.0529
     25 C          -6.2661   -0.3064   -7.3214 C.ar    1  LIG11       0.0372
     26 C          -6.3838    0.3398   -8.5511 C.ar    1  LIG11      -0.0489
     27 C          -7.7418    4.6787   -7.1211 C.ar    1  LIG11      -0.0521
     28 C          -5.6520    6.2214   -8.0802 C.ar    1  LIG11      -0.0345
     29 C          -7.8306    6.0736   -7.0900 C.ar    1  LIG11      -0.0611
     30 C          -6.0426   -1.7477   -7.2656 C.ar    1  LIG11       0.2271
     31 C          -6.7751    6.8453   -7.5481 C.ar    1  LIG11      -0.0599
     32 C          -4.2045    3.7938  -11.7246 C.ar    1  LIG11       0.1837
     33 C          -3.5920    2.5891  -12.1419 C.ar    1  LIG11       0.0342
     34 C          -3.1415    2.8873  -13.4135 C.ar    1  LIG11       0.1390
     35 C          -3.5070    1.2810  -11.4577 C.3     1  LIG11      -0.0330
     36 C          -5.9766   -3.6705   -6.2863 C.ar    1  LIG11       0.1125
     37 C          -5.5888   -3.7946   -7.5952 C.ar    1  LIG11       0.0663
     38 C          -2.4558    2.1163  -14.4685 C.3     1  LIG11      -0.0034
@<TRIPOS>BOND
     1     1     3    2
     2     1     4    2
     3     1     8    1
     4     1    23    1
     5     2    16    2
     6     5    30   ar
     7     5    36   ar
     8     6    10   ar
     9     6    34   ar
    10     7    16   am
    11     7    17    1
    12     7    21    1
    13     8    32    1
    14     9    30   ar
    15     9    37   ar
    16    10    32   ar
    17    11    12    1
    18    11    13    1
    19    11    14    1
    20    11    15    1
    21    12    16    1
    22    17    18    1
    23    18    19   ar
    24    18    22   ar
    25    19    20    1
    26    19    24   ar
    27    20    23   ar
    28    20    27   ar
    29    22    25   ar
    30    23    28   ar
    31    24    26   ar
    32    25    26   ar
    33    25    30    1
    34    27    29   ar
    35    28    31   ar
    36    29    31   ar
    37    32    33   ar
    38    33    34   ar
    39    33    35    1
    40    34    38    1
    41    36    37   ar
@<TRIPOS>MOLECULE
../1EDN/PCA2_17-21.pdb
 47 48 0 0 0
SMALL
GASTEIGER

@<TRIPOS>ATOM
      1  N         -4.4680    0.3970   -1.5420 N.3    17  LEU17      -0.1231
      2  CA        -5.5730   -0.5090   -1.8150 C.3    17  LEU17       0.1693
      3  CB        -5.9860   -1.2020   -0.4580 C.3    17  LEU17       0.0284
      4  CG        -7.1280   -2.2100   -0.5390 C.3    17  LEU17       0.0019
      5  CD1       -6.7120   -3.3620   -1.4700 C.3    17  LEU17       0.0001
      6  CD2       -7.4980   -2.5610    0.9130 C.3    17  LEU17       0.0001
      7  C         -6.7000    0.2280   -2.5610 C.2    17  LEU17       0.2592
      8  O         -7.1860   -0.2780   -3.5510 O.2    17  LEU17      -0.2718
      9  N         -7.2650    1.2690   -1.9650 N.am   18  ASP18      -0.1960
     10  CA        -8.5260    1.8930   -2.2590 C.3    18  ASP18       0.1840
     11  CB        -9.6810    1.0560   -1.6740 C.3    18  ASP18       0.1450
     12  CG       -11.0010    1.6360   -2.1090 C.2    18  ASP18       0.3671
     13  OD1      -11.5960    2.3310   -1.2790 O.co2  18  ASP18      -0.2456
     14  OD2      -11.5460    1.2700   -3.1630 O.co2  18  ASP18      -0.2456
     15  C         -8.5570    3.3770   -1.7380 C.2    18  ASP18       0.2622
     16  O         -8.6960    4.2620   -2.5680 O.2    18  ASP18      -0.2715
     17  N         -8.4180    3.5730   -0.4160 N.am   19  ILE19      -0.1963
     18  CA        -8.3980    4.9040    0.1930 C.3    19  ILE19       0.1727
     19  CB        -8.4260    4.8620    1.7600 C.3    19  ILE19       0.0290
     20  CG2       -7.7310    6.0060    2.5190 C.3    19  ILE19       0.0023
     21  CG1       -9.9240    4.5740    2.2500 C.3    19  ILE19       0.0022
     22  CD1      -10.9740    5.6950    2.0110 C.3    19  ILE19       0.0001
     23  C         -7.1570    5.7010   -0.3260 C.2    19  ILE19       0.2616
     24  O         -7.3050    6.7970   -0.9200 O.2    19  ILE19      -0.2715
     25  N         -5.9900    5.0720   -0.2260 N.am   20  ILE20      -0.1963
     26  CA        -4.7520    5.3490   -0.9430 C.3    20  ILE20       0.1727
     27  CB        -3.5230    4.9310   -0.1080 C.3    20  ILE20       0.0290
     28  CG2       -2.1210    5.5060   -0.7390 C.3    20  ILE20       0.0023
     29  CG1       -3.5940    5.4760    1.3470 C.3    20  ILE20       0.0022
     30  CD1       -2.3570    5.1940    2.2260 C.3    20  ILE20       0.0001
     31  C         -4.7590    4.7050   -2.3650 C.2    20  ILE20       0.2617
     32  O         -4.2060    3.6200   -2.5900 O.2    20  ILE20      -0.2715
     33  N         -5.4060    5.3330   -3.3880 N.am   21  TRP21      -0.1938
     34  CA        -5.3950    4.7680   -4.7850 C.3    21  TRP21       0.2021
     35  CB        -6.6210    3.8650   -5.0310 C.3    21  TRP21       0.0612
     36  CG        -6.7890    3.3770   -6.4480 C.ar   21  TRP21       0.0007
     37  CD1       -7.1340    4.1960   -7.4760 C.ar   21  TRP21       0.0946
     38  NE1       -7.1740    3.4060   -8.6160 N.ar   21  TRP21      -0.2442
     39  CE2       -6.9360    2.0750   -8.3350 C.ar   21  TRP21       0.0810
     40  CZ2       -6.8300    1.0510   -9.2060 C.ar   21  TRP21       0.0191
     41  CH2       -6.3330   -0.2010   -8.7710 C.ar   21  TRP21       0.0015
     42  CZ3       -5.9560   -0.2520   -7.3640 C.ar   21  TRP21       0.0001
     43  CE3       -6.0150    0.8940   -6.5860 C.ar   21  TRP21       0.0012
     44  CD2       -6.6320    2.0560   -6.9830 C.ar   21  TRP21       0.0152
     45  C         -5.1960    5.8550   -5.8260 C.2    21  TRP21       0.3845
     46  O         -4.1840    5.6720   -6.5070 O.co2  21  TRP21      -0.2437
     47  OXT       -5.9640    6.8330   -6.0170 O.co2  21  TRP21      -0.2437
@<TRIPOS>BOND
     1    40    41   ar
     2    40    39   ar
     3    41    42   ar
     4    38    39   ar
     5    38    37   ar
     6    39    44   ar
     7    37    36   ar
     8    42    43   ar
     9    44    43   ar
    10    44    36   ar
    11    46    45   ar
    12    36    35    1
    13    47    45   ar
    14    45    34    1
    15    35    34    1
    16    34    33    1
    17     8     7    2
    18    33    31   am
    19    14    12   ar
    20    32    31    2
    21    16    15    2
    22     7     9   am
    23     7     2    1
    24    31    26    1
    25    10     9    1
    26    10    15    1
    27    10    11    1
    28    12    11    1
    29    12    13   ar
    30     2     1    1
    31     2     3    1
    32    15    17   am
    33     5     4    1
    34    26    25    1
    35    26    27    1
    36    24    23    2
    37    28    27    1
    38     4     3    1
    39     4     6    1
    40    17    18    1
    41    23    25   am
    42    23    18    1
    43    27    29    1
    44    18    19    1
    45    29    30    1
    46    19    21    1
    47    19    20    1
    48    22    21    1
