@<TRIPOS>MOLECULE
../1EDN/PCA2_17-21_NOBACKBONE.pdb
 26 23 0 0 0
SMALL
GASTEIGER

@<TRIPOS>ATOM
      1  CB        -5.9860   -1.2020   -0.4580 C.3    17  LEU17       0.0000
      2  CG        -7.1280   -2.2100   -0.5390 C.3    17  LEU17       0.0000
      3  CD1       -6.7120   -3.3620   -1.4700 C.3    17  LEU17       0.0000
      4  CD2       -7.4980   -2.5610    0.9130 C.3    17  LEU17       0.0000
      5  CB        -9.6810    1.0560   -1.6740 C.3    18  ASP18       0.1258
      6  CG       -11.0010    1.6360   -2.1090 C.2    18  ASP18       0.3654
      7  OD1      -11.5960    2.3310   -1.2790 O.co2  18  ASP18      -0.2456
      8  OD2      -11.5460    1.2700   -3.1630 O.co2  18  ASP18      -0.2456
      9  CB        -8.4260    4.8620    1.7600 C.3    19  ILE19       0.0000
     10  CG2       -7.7310    6.0060    2.5190 C.3    19  ILE19       0.0000
     11  CG1       -9.9240    4.5740    2.2500 C.3    19  ILE19       0.0000
     12  CD1      -10.9740    5.6950    2.0110 C.3    19  ILE19       0.0000
     13  CB        -3.5230    4.9310   -0.1080 C.3    20  ILE20       0.0000
     14  CG2       -2.1210    5.5060   -0.7390 C.3    20  ILE20       0.0000
     15  CG1       -3.5940    5.4760    1.3470 C.3    20  ILE20       0.0000
     16  CD1       -2.3570    5.1940    2.2260 C.3    20  ILE20       0.0000
     17  CB        -6.6210    3.8650   -5.0310 C.3    21  TRP21       0.0327
     18  CG        -6.7890    3.3770   -6.4480 C.ar   21  TRP21      -0.0013
     19  CD1       -7.1340    4.1960   -7.4760 C.ar   21  TRP21       0.0946
     20  NE1       -7.1740    3.4060   -8.6160 N.ar   21  TRP21      -0.2442
     21  CE2       -6.9360    2.0750   -8.3350 C.ar   21  TRP21       0.0810
     22  CZ2       -6.8300    1.0510   -9.2060 C.ar   21  TRP21       0.0191
     23  CH2       -6.3330   -0.2010   -8.7710 C.ar   21  TRP21       0.0015
     24  CZ3       -5.9560   -0.2520   -7.3640 C.ar   21  TRP21       0.0001
     25  CE3       -6.0150    0.8940   -6.5860 C.ar   21  TRP21       0.0012
     26  CD2       -6.6320    2.0560   -6.9830 C.ar   21  TRP21       0.0152
@<TRIPOS>BOND
     1    22    23   ar
     2    22    21   ar
     3    23    24   ar
     4    20    21   ar
     5    20    19   ar
     6    21    26   ar
     7    19    18   ar
     8    24    25   ar
     9    26    25   ar
    10    26    18   ar
    11    18    17    1
    12     8     6   ar
    13     6     5    1
    14     6     7   ar
    15     3     2    1
    16    14    13    1
    17     2     1    1
    18     2     4    1
    19    13    15    1
    20    15    16    1
    21     9    11    1
    22     9    10    1
    23    12    11    1
@<TRIPOS>MOLECULE
*****
 67 70 0 0 0
SMALL
GASTEIGER

@<TRIPOS>ATOM
      1 C          -7.0298    3.0953   -8.4311 C.ar    1  LIG11       0.0483
      2 C          -6.6721    1.7702   -8.5255 C.ar    1  LIG11       0.0543
      3 C          -6.3254    1.1628   -7.3410 C.ar    1  LIG11       0.0483
      4 N          -6.3395    1.7944   -6.1476 N.ar    1  LIG11      -0.2022
      5 N          -7.0609    3.7779   -7.2669 N.ar    1  LIG11      -0.2022
      6 C          -7.0275   -1.7301    0.4200 C.ar    1  LIG11      -0.0504
      7 C          -7.6315   -1.1726    1.5451 C.ar    1  LIG11      -0.0583
      8 C          -7.8418    0.2118    1.6355 C.ar    1  LIG11      -0.0535
      9 C          -7.4352    1.1041    0.6246 C.ar    1  LIG11      -0.0094
     10 C          -6.7887    0.5123   -0.4796 C.ar    1  LIG11      -0.0535
     11 C          -6.6158   -0.8748   -0.5994 C.ar    1  LIG11      -0.0583
     12 C          -3.4718    3.3284    0.5864 C.ar    1  LIG11      -0.0561
     13 C          -4.2741    2.7807    1.5920 C.ar    1  LIG11      -0.0348
     14 C          -4.9839    3.6220    2.4456 C.ar    1  LIG11       0.1086
     15 C          -4.8641    5.0064    2.3309 C.ar    1  LIG11      -0.0348
     16 C          -4.0646    5.5445    1.3192 C.ar    1  LIG11      -0.0561
     17 C          -2.4743    5.3531   -0.6782 C.3     1  LIG11       0.0132
     18 C          -3.3517    4.7205    0.4233 C.ar    1  LIG11      -0.0394
     19 C          -1.6978    4.3141   -1.5219 C.3     1  LIG11      -0.0537
     20 C          -3.3436    6.2171   -1.6352 C.3     1  LIG11       0.0533
     21 C          -1.4157    6.2685   -0.0179 C.3     1  LIG11      -0.0537
     22 O          -4.2871    5.4395   -2.3682 O.3     1  LIG11      -0.3942
     23 S          -5.9746    2.9247    3.7411 S.O2    1  LIG11       0.0735
     24 O          -6.0181    3.8862    4.8223 O.2     1  LIG11      -0.1499
     25 O          -5.5023    1.5750    3.9892 O.2     1  LIG11      -0.1499
     26 N          -7.5673    2.8076    3.1786 N.pl3   1  LIG11      -0.1988
     27 C          -7.7186    2.5727    0.6997 C.ar    1  LIG11       0.0847
     28 C          -7.9602    3.3873   -0.4104 C.ar    1  LIG11       0.2276
     29 N          -8.3037    4.6946   -0.3670 N.ar    1  LIG11      -0.2008
     30 C          -8.3859    5.2452    0.8389 C.ar    1  LIG11       0.1219
     31 N          -8.1618    4.6120    1.9872 N.ar    1  LIG11      -0.2186
     32 C          -7.8315    3.3105    1.8794 C.ar    1  LIG11       0.1524
     33 C          -6.8904   -3.2168    0.2830 C.3     1  LIG11      -0.0397
     34 O          -7.9385    2.8200   -1.6664 O.3     1  LIG11      -0.4724
     35 C          -7.5822    3.7400   -2.7042 C.3     1  LIG11       0.1252
     36 C          -7.0550    2.9242   -3.8798 C.3     1  LIG11       0.1267
     37 O          -6.8128    3.7857   -4.9887 O.3     1  LIG11      -0.4590
     38 C          -6.7299    3.0827   -6.1691 C.ar    1  LIG11       0.3180
     39 BR         -6.6652    0.8492  -10.1603 Br      1  LIG11      -0.0472
     40 H          -7.3182    3.6718   -9.3052 H       1  LIG11       0.0843
     41 H          -6.0226    0.1204   -7.3032 H       1  LIG11       0.0843
     42 H          -7.9607   -1.8103    2.3633 H       1  LIG11       0.0620
     43 H          -8.3524    0.5678    2.5274 H       1  LIG11       0.0624
     44 H          -6.4116    1.1185   -1.2992 H       1  LIG11       0.0624
     45 H          -6.1604   -1.2757   -1.5025 H       1  LIG11       0.0620
     46 H          -2.9438    2.6322   -0.0589 H       1  LIG11       0.0621
     47 H          -4.3389    1.6986    1.6963 H       1  LIG11       0.0637
     48 H          -5.3942    5.6697    3.0106 H       1  LIG11       0.0637
     49 H          -4.0059    6.6290    1.2425 H       1  LIG11       0.0621
     50 H          -1.0068    3.7312   -0.9013 H       1  LIG11       0.0239
     51 H          -1.0990    4.8074   -2.2968 H       1  LIG11       0.0239
     52 H          -2.3655    3.6101   -2.0304 H       1  LIG11       0.0239
     53 H          -2.7150    6.7473   -2.3610 H       1  LIG11       0.0566
     54 H          -3.9061    6.9821   -1.0897 H       1  LIG11       0.0566
     55 H          -1.8688    7.1144    0.5104 H       1  LIG11       0.0239
     56 H          -0.7349    6.6891   -0.7676 H       1  LIG11       0.0239
     57 H          -0.8091    5.7132    0.7075 H       1  LIG11       0.0239
     58 H          -3.8083    4.9857   -3.0820 H       1  LIG11       0.2094
     59 H          -8.1077    3.3892    3.8219 H       1  LIG11       0.1753
     60 H          -8.6553    6.2940    0.8900 H       1  LIG11       0.1049
     61 H          -6.6519   -3.6763    1.2479 H       1  LIG11       0.0278
     62 H          -6.0845   -3.4780   -0.4109 H       1  LIG11       0.0278
     63 H          -7.8255   -3.6450   -0.0922 H       1  LIG11       0.0278
     64 H          -6.8047    4.4448   -2.3845 H       1  LIG11       0.0731
     65 H          -8.4656    4.3127   -3.0119 H       1  LIG11       0.0731
     66 H          -7.7949    2.1483   -4.1205 H       1  LIG11       0.0732
     67 H          -6.1218    2.4270   -3.5841 H       1  LIG11       0.0732
@<TRIPOS>BOND
     1     1     2   ar
     2     2     3   ar
     3     2    39    1
     4     3     4   ar
     5     4    38   ar
     6     5     1   ar
     7     6     7   ar
     8     6    33    1
     9     7     8   ar
    10     8     9   ar
    11     9    10   ar
    12    10    11   ar
    13    11     6   ar
    14    12    13   ar
    15    13    14   ar
    16    14    15   ar
    17    15    16   ar
    18    16    18   ar
    19    17    18    1
    20    17    21    1
    21    17    20    1
    22    17    19    1
    23    18    12   ar
    24    20    22    1
    25    23    26    1
    26    23    25    2
    27    23    24    2
    28    23    14    1
    29    26    32    1
    30    27    28   ar
    31    27     9    1
    32    28    29   ar
    33    29    30   ar
    34    30    31   ar
    35    31    32   ar
    36    32    27   ar
    37    34    35    1
    38    34    28    1
    39    35    36    1
    40    36    37    1
    41    37    38    1
    42    38     5   ar
    43     1    40    1
    44     3    41    1
    45     7    42    1
    46     8    43    1
    47    10    44    1
    48    11    45    1
    49    12    46    1
    50    13    47    1
    51    15    48    1
    52    16    49    1
    53    19    50    1
    54    19    51    1
    55    19    52    1
    56    20    53    1
    57    20    54    1
    58    21    55    1
    59    21    56    1
    60    21    57    1
    61    22    58    1
    62    26    59    1
    63    30    60    1
    64    33    61    1
    65    33    62    1
    66    33    63    1
    67    35    64    1
    68    35    65    1
    69    36    66    1
    70    36    67    1
@<TRIPOS>MOLECULE
../1EDN/PCA2_17-21.pdb
 47 48 0 0 0
SMALL
GASTEIGER

@<TRIPOS>ATOM
      1  N         -4.4680    0.3970   -1.5420 N.3    17  LEU17      -0.1231
      2  CA        -5.5730   -0.5090   -1.8150 C.3    17  LEU17       0.1693
      3  CB        -5.9860   -1.2020   -0.4580 C.3    17  LEU17       0.0284
      4  CG        -7.1280   -2.2100   -0.5390 C.3    17  LEU17       0.0019
      5  CD1       -6.7120   -3.3620   -1.4700 C.3    17  LEU17       0.0001
      6  CD2       -7.4980   -2.5610    0.9130 C.3    17  LEU17       0.0001
      7  C         -6.7000    0.2280   -2.5610 C.2    17  LEU17       0.2592
      8  O         -7.1860   -0.2780   -3.5510 O.2    17  LEU17      -0.2718
      9  N         -7.2650    1.2690   -1.9650 N.am   18  ASP18      -0.1960
     10  CA        -8.5260    1.8930   -2.2590 C.3    18  ASP18       0.1840
     11  CB        -9.6810    1.0560   -1.6740 C.3    18  ASP18       0.1450
     12  CG       -11.0010    1.6360   -2.1090 C.2    18  ASP18       0.3671
     13  OD1      -11.5960    2.3310   -1.2790 O.co2  18  ASP18      -0.2456
     14  OD2      -11.5460    1.2700   -3.1630 O.co2  18  ASP18      -0.2456
     15  C         -8.5570    3.3770   -1.7380 C.2    18  ASP18       0.2622
     16  O         -8.6960    4.2620   -2.5680 O.2    18  ASP18      -0.2715
     17  N         -8.4180    3.5730   -0.4160 N.am   19  ILE19      -0.1963
     18  CA        -8.3980    4.9040    0.1930 C.3    19  ILE19       0.1727
     19  CB        -8.4260    4.8620    1.7600 C.3    19  ILE19       0.0290
     20  CG2       -7.7310    6.0060    2.5190 C.3    19  ILE19       0.0023
     21  CG1       -9.9240    4.5740    2.2500 C.3    19  ILE19       0.0022
     22  CD1      -10.9740    5.6950    2.0110 C.3    19  ILE19       0.0001
     23  C         -7.1570    5.7010   -0.3260 C.2    19  ILE19       0.2616
     24  O         -7.3050    6.7970   -0.9200 O.2    19  ILE19      -0.2715
     25  N         -5.9900    5.0720   -0.2260 N.am   20  ILE20      -0.1963
     26  CA        -4.7520    5.3490   -0.9430 C.3    20  ILE20       0.1727
     27  CB        -3.5230    4.9310   -0.1080 C.3    20  ILE20       0.0290
     28  CG2       -2.1210    5.5060   -0.7390 C.3    20  ILE20       0.0023
     29  CG1       -3.5940    5.4760    1.3470 C.3    20  ILE20       0.0022
     30  CD1       -2.3570    5.1940    2.2260 C.3    20  ILE20       0.0001
     31  C         -4.7590    4.7050   -2.3650 C.2    20  ILE20       0.2617
     32  O         -4.2060    3.6200   -2.5900 O.2    20  ILE20      -0.2715
     33  N         -5.4060    5.3330   -3.3880 N.am   21  TRP21      -0.1938
     34  CA        -5.3950    4.7680   -4.7850 C.3    21  TRP21       0.2021
     35  CB        -6.6210    3.8650   -5.0310 C.3    21  TRP21       0.0612
     36  CG        -6.7890    3.3770   -6.4480 C.ar   21  TRP21       0.0007
     37  CD1       -7.1340    4.1960   -7.4760 C.ar   21  TRP21       0.0946
     38  NE1       -7.1740    3.4060   -8.6160 N.ar   21  TRP21      -0.2442
     39  CE2       -6.9360    2.0750   -8.3350 C.ar   21  TRP21       0.0810
     40  CZ2       -6.8300    1.0510   -9.2060 C.ar   21  TRP21       0.0191
     41  CH2       -6.3330   -0.2010   -8.7710 C.ar   21  TRP21       0.0015
     42  CZ3       -5.9560   -0.2520   -7.3640 C.ar   21  TRP21       0.0001
     43  CE3       -6.0150    0.8940   -6.5860 C.ar   21  TRP21       0.0012
     44  CD2       -6.6320    2.0560   -6.9830 C.ar   21  TRP21       0.0152
     45  C         -5.1960    5.8550   -5.8260 C.2    21  TRP21       0.3845
     46  O         -4.1840    5.6720   -6.5070 O.co2  21  TRP21      -0.2437
     47  OXT       -5.9640    6.8330   -6.0170 O.co2  21  TRP21      -0.2437
@<TRIPOS>BOND
     1    40    41   ar
     2    40    39   ar
     3    41    42   ar
     4    38    39   ar
     5    38    37   ar
     6    39    44   ar
     7    37    36   ar
     8    42    43   ar
     9    44    43   ar
    10    44    36   ar
    11    46    45   ar
    12    36    35    1
    13    47    45   ar
    14    45    34    1
    15    35    34    1
    16    34    33    1
    17     8     7    2
    18    33    31   am
    19    14    12   ar
    20    32    31    2
    21    16    15    2
    22     7     9   am
    23     7     2    1
    24    31    26    1
    25    10     9    1
    26    10    15    1
    27    10    11    1
    28    12    11    1
    29    12    13   ar
    30     2     1    1
    31     2     3    1
    32    15    17   am
    33     5     4    1
    34    26    25    1
    35    26    27    1
    36    24    23    2
    37    28    27    1
    38     4     3    1
    39     4     6    1
    40    17    18    1
    41    23    25   am
    42    23    18    1
    43    27    29    1
    44    18    19    1
    45    29    30    1
    46    19    21    1
    47    19    20    1
    48    22    21    1
