@<TRIPOS>MOLECULE
../1EDN/PCA2_17-21_NOBACKBONE.pdb
 26 23 0 0 0
SMALL
GASTEIGER

@<TRIPOS>ATOM
      1  CB        -5.9860   -1.2020   -0.4580 C.3    17  LEU17       0.0000
      2  CG        -7.1280   -2.2100   -0.5390 C.3    17  LEU17       0.0000
      3  CD1       -6.7120   -3.3620   -1.4700 C.3    17  LEU17       0.0000
      4  CD2       -7.4980   -2.5610    0.9130 C.3    17  LEU17       0.0000
      5  CB        -9.6810    1.0560   -1.6740 C.3    18  ASP18       0.1258
      6  CG       -11.0010    1.6360   -2.1090 C.2    18  ASP18       0.3654
      7  OD1      -11.5960    2.3310   -1.2790 O.co2  18  ASP18      -0.2456
      8  OD2      -11.5460    1.2700   -3.1630 O.co2  18  ASP18      -0.2456
      9  CB        -8.4260    4.8620    1.7600 C.3    19  ILE19       0.0000
     10  CG2       -7.7310    6.0060    2.5190 C.3    19  ILE19       0.0000
     11  CG1       -9.9240    4.5740    2.2500 C.3    19  ILE19       0.0000
     12  CD1      -10.9740    5.6950    2.0110 C.3    19  ILE19       0.0000
     13  CB        -3.5230    4.9310   -0.1080 C.3    20  ILE20       0.0000
     14  CG2       -2.1210    5.5060   -0.7390 C.3    20  ILE20       0.0000
     15  CG1       -3.5940    5.4760    1.3470 C.3    20  ILE20       0.0000
     16  CD1       -2.3570    5.1940    2.2260 C.3    20  ILE20       0.0000
     17  CB        -6.6210    3.8650   -5.0310 C.3    21  TRP21       0.0327
     18  CG        -6.7890    3.3770   -6.4480 C.ar   21  TRP21      -0.0013
     19  CD1       -7.1340    4.1960   -7.4760 C.ar   21  TRP21       0.0946
     20  NE1       -7.1740    3.4060   -8.6160 N.ar   21  TRP21      -0.2442
     21  CE2       -6.9360    2.0750   -8.3350 C.ar   21  TRP21       0.0810
     22  CZ2       -6.8300    1.0510   -9.2060 C.ar   21  TRP21       0.0191
     23  CH2       -6.3330   -0.2010   -8.7710 C.ar   21  TRP21       0.0015
     24  CZ3       -5.9560   -0.2520   -7.3640 C.ar   21  TRP21       0.0001
     25  CE3       -6.0150    0.8940   -6.5860 C.ar   21  TRP21       0.0012
     26  CD2       -6.6320    2.0560   -6.9830 C.ar   21  TRP21       0.0152
@<TRIPOS>BOND
     1    22    23   ar
     2    22    21   ar
     3    23    24   ar
     4    20    21   ar
     5    20    19   ar
     6    21    26   ar
     7    19    18   ar
     8    24    25   ar
     9    26    25   ar
    10    26    18   ar
    11    18    17    1
    12     8     6   ar
    13     6     5    1
    14     6     7   ar
    15     3     2    1
    16    14    13    1
    17     2     1    1
    18     2     4    1
    19    13    15    1
    20    15    16    1
    21     9    11    1
    22     9    10    1
    23    12    11    1
@<TRIPOS>MOLECULE
01479498K
 57 61 0 0 0
SMALL
GASTEIGER

@<TRIPOS>ATOM
      1 C          -6.9426    3.8048   -6.4402 C.3     1  LIG11       0.1526
      2 C          -6.0879    4.0670   -5.2376 C.2     1  LIG11       0.0278
      3 C          -6.6472    2.5132   -7.2083 C.ar    1  LIG11       0.0009
      4 O          -8.3653    3.8012   -6.1561 O.3     1  LIG11      -0.4789
      5 C          -6.4870    3.8353   -3.9724 C.2     1  LIG11       0.0016
      6 C          -4.7389    4.6780   -5.5935 C.2     1  LIG11       0.0721
      7 C          -6.9789    2.4404   -8.5750 C.ar    1  LIG11      -0.0091
      8 C          -6.1209    1.3617   -6.5713 C.ar    1  LIG11      -0.0511
      9 C          -8.7109    3.2761   -4.9411 C.ar    1  LIG11       0.1298
     10 C          -7.8443    3.2569   -3.8470 C.ar    1  LIG11       0.0283
     11 C          -5.5940    4.1285   -2.8337 C.ar    1  LIG11      -0.0165
     12 O          -4.7795    5.9026   -5.9065 O.co2   1  LIG11      -0.5448
     13 O          -3.7673    3.8704   -5.5988 O.co2   1  LIG11      -0.5448
     14 C          -6.7688    1.2501   -9.2397 C.ar    1  LIG11       0.1666
     15 C          -5.9214    0.1666   -7.2698 C.ar    1  LIG11      -0.0158
     16 C         -10.0060    2.7727   -4.8323 C.ar    1  LIG11      -0.0158
     17 C          -8.3046    2.6954   -2.6459 C.ar    1  LIG11      -0.0087
     18 C          -5.7431    5.3155   -2.1101 C.ar    1  LIG11      -0.0505
     19 C          -4.6215    3.2062   -2.4379 C.ar    1  LIG11      -0.0505
     20 C          -6.2564    0.1437   -8.6038 C.ar    1  LIG11       0.1662
     21 O          -7.0383    1.0141  -10.5529 O.3     1  LIG11      -0.4526
     22 C         -10.4466    2.2142   -3.6298 C.ar    1  LIG11      -0.0164
     23 C          -9.6020    2.1780   -2.5261 C.ar    1  LIG11       0.1217
     24 C          -4.9474    5.5669   -0.9860 C.ar    1  LIG11      -0.0194
     25 C          -3.8307    3.4568   -1.3140 C.ar    1  LIG11      -0.0194
     26 O          -6.1382   -0.9273   -9.4347 O.3     1  LIG11      -0.4526
     27 C          -6.6018   -0.3539  -10.6726 C.3     1  LIG11       0.2332
     28 O          -9.8798    1.6562   -1.2989 O.3     1  LIG11      -0.4893
     29 C          -3.9966    4.6304   -0.5749 C.ar    1  LIG11       0.1201
     30 C         -11.2075    1.4215   -0.8252 C.3     1  LIG11       0.0946
     31 O          -3.1748    4.7428    0.5147 O.3     1  LIG11      -0.4951
     32 C         -12.1367    2.6298   -0.9081 C.3     1  LIG11      -0.0281
     33 C         -11.8090    0.1250   -1.3576 C.3     1  LIG11      -0.0281
     34 C          -3.3518    5.8949    1.3265 C.3     1  LIG11       0.0788
     35 H          -6.8068    4.6414   -7.1387 H       1  LIG11       0.0837
     36 H          -7.3942    3.2971   -9.0945 H       1  LIG11       0.0659
     37 H          -5.8514    1.3998   -5.5172 H       1  LIG11       0.0623
     38 H          -5.5120   -0.7046   -6.7737 H       1  LIG11       0.0655
     39 H         -10.6637    2.8005   -5.6962 H       1  LIG11       0.0655
     40 H          -7.6482    2.6561   -1.7794 H       1  LIG11       0.0661
     41 H          -6.4746    6.0531   -2.4316 H       1  LIG11       0.0625
     42 H          -4.4660    2.3003   -3.0189 H       1  LIG11       0.0625
     43 H         -11.4493    1.8119   -3.6060 H       1  LIG11       0.0655
     44 H          -5.0929    6.5061   -0.4658 H       1  LIG11       0.0654
     45 H          -3.0744    2.7338   -1.0235 H       1  LIG11       0.0654
     46 H          -5.7884   -0.4006  -11.4062 H       1  LIG11       0.1166
     47 H          -7.4398   -0.9558  -11.0426 H       1  LIG11       0.1166
     48 H         -11.0614    1.2493    0.2496 H       1  LIG11       0.0727
     49 H         -12.4944    2.8169   -1.9233 H       1  LIG11       0.0265
     50 H         -11.6213    3.5357   -0.5719 H       1  LIG11       0.0265
     51 H         -13.0196    2.4780   -0.2785 H       1  LIG11       0.0265
     52 H         -12.0516    0.1749   -2.4207 H       1  LIG11       0.0265
     53 H         -12.7298   -0.1233   -0.8196 H       1  LIG11       0.0265
     54 H         -11.1011   -0.7015   -1.2338 H       1  LIG11       0.0265
     55 H          -2.6574    5.8191    2.1689 H       1  LIG11       0.0660
     56 H          -4.3661    5.9383    1.7376 H       1  LIG11       0.0660
     57 H          -3.1076    6.8087    0.7751 H       1  LIG11       0.0660
@<TRIPOS>BOND
     1     1     4    1
     2     1     2    1
     3     1     3    1
     4     2     5    2
     5     2     6    1
     6     3     8   ar
     7     3     7   ar
     8     4     9    1
     9     5    10    1
    10     5    11    1
    11     6    13   ar
    12     6    12   ar
    13     7    14   ar
    14     8    15   ar
    15     9    16   ar
    16     9    10   ar
    17    10    17   ar
    18    11    18   ar
    19    11    19   ar
    20    14    21    1
    21    14    20   ar
    22    15    20   ar
    23    16    22   ar
    24    17    23   ar
    25    18    24   ar
    26    19    25   ar
    27    20    26    1
    28    21    27    1
    29    22    23   ar
    30    23    28    1
    31    24    29   ar
    32    25    29   ar
    33    26    27    1
    34    28    30    1
    35    29    31    1
    36    30    33    1
    37    30    32    1
    38    31    34    1
    39     1    35    1
    40     7    36    1
    41     8    37    1
    42    15    38    1
    43    16    39    1
    44    17    40    1
    45    18    41    1
    46    19    42    1
    47    22    43    1
    48    24    44    1
    49    25    45    1
    50    27    46    1
    51    27    47    1
    52    30    48    1
    53    32    49    1
    54    32    50    1
    55    32    51    1
    56    33    52    1
    57    33    53    1
    58    33    54    1
    59    34    55    1
    60    34    56    1
    61    34    57    1
@<TRIPOS>MOLECULE
../1EDN/PCA2_17-21.pdb
 47 48 0 0 0
SMALL
GASTEIGER

@<TRIPOS>ATOM
      1  N         -4.4680    0.3970   -1.5420 N.3    17  LEU17      -0.1231
      2  CA        -5.5730   -0.5090   -1.8150 C.3    17  LEU17       0.1693
      3  CB        -5.9860   -1.2020   -0.4580 C.3    17  LEU17       0.0284
      4  CG        -7.1280   -2.2100   -0.5390 C.3    17  LEU17       0.0019
      5  CD1       -6.7120   -3.3620   -1.4700 C.3    17  LEU17       0.0001
      6  CD2       -7.4980   -2.5610    0.9130 C.3    17  LEU17       0.0001
      7  C         -6.7000    0.2280   -2.5610 C.2    17  LEU17       0.2592
      8  O         -7.1860   -0.2780   -3.5510 O.2    17  LEU17      -0.2718
      9  N         -7.2650    1.2690   -1.9650 N.am   18  ASP18      -0.1960
     10  CA        -8.5260    1.8930   -2.2590 C.3    18  ASP18       0.1840
     11  CB        -9.6810    1.0560   -1.6740 C.3    18  ASP18       0.1450
     12  CG       -11.0010    1.6360   -2.1090 C.2    18  ASP18       0.3671
     13  OD1      -11.5960    2.3310   -1.2790 O.co2  18  ASP18      -0.2456
     14  OD2      -11.5460    1.2700   -3.1630 O.co2  18  ASP18      -0.2456
     15  C         -8.5570    3.3770   -1.7380 C.2    18  ASP18       0.2622
     16  O         -8.6960    4.2620   -2.5680 O.2    18  ASP18      -0.2715
     17  N         -8.4180    3.5730   -0.4160 N.am   19  ILE19      -0.1963
     18  CA        -8.3980    4.9040    0.1930 C.3    19  ILE19       0.1727
     19  CB        -8.4260    4.8620    1.7600 C.3    19  ILE19       0.0290
     20  CG2       -7.7310    6.0060    2.5190 C.3    19  ILE19       0.0023
     21  CG1       -9.9240    4.5740    2.2500 C.3    19  ILE19       0.0022
     22  CD1      -10.9740    5.6950    2.0110 C.3    19  ILE19       0.0001
     23  C         -7.1570    5.7010   -0.3260 C.2    19  ILE19       0.2616
     24  O         -7.3050    6.7970   -0.9200 O.2    19  ILE19      -0.2715
     25  N         -5.9900    5.0720   -0.2260 N.am   20  ILE20      -0.1963
     26  CA        -4.7520    5.3490   -0.9430 C.3    20  ILE20       0.1727
     27  CB        -3.5230    4.9310   -0.1080 C.3    20  ILE20       0.0290
     28  CG2       -2.1210    5.5060   -0.7390 C.3    20  ILE20       0.0023
     29  CG1       -3.5940    5.4760    1.3470 C.3    20  ILE20       0.0022
     30  CD1       -2.3570    5.1940    2.2260 C.3    20  ILE20       0.0001
     31  C         -4.7590    4.7050   -2.3650 C.2    20  ILE20       0.2617
     32  O         -4.2060    3.6200   -2.5900 O.2    20  ILE20      -0.2715
     33  N         -5.4060    5.3330   -3.3880 N.am   21  TRP21      -0.1938
     34  CA        -5.3950    4.7680   -4.7850 C.3    21  TRP21       0.2021
     35  CB        -6.6210    3.8650   -5.0310 C.3    21  TRP21       0.0612
     36  CG        -6.7890    3.3770   -6.4480 C.ar   21  TRP21       0.0007
     37  CD1       -7.1340    4.1960   -7.4760 C.ar   21  TRP21       0.0946
     38  NE1       -7.1740    3.4060   -8.6160 N.ar   21  TRP21      -0.2442
     39  CE2       -6.9360    2.0750   -8.3350 C.ar   21  TRP21       0.0810
     40  CZ2       -6.8300    1.0510   -9.2060 C.ar   21  TRP21       0.0191
     41  CH2       -6.3330   -0.2010   -8.7710 C.ar   21  TRP21       0.0015
     42  CZ3       -5.9560   -0.2520   -7.3640 C.ar   21  TRP21       0.0001
     43  CE3       -6.0150    0.8940   -6.5860 C.ar   21  TRP21       0.0012
     44  CD2       -6.6320    2.0560   -6.9830 C.ar   21  TRP21       0.0152
     45  C         -5.1960    5.8550   -5.8260 C.2    21  TRP21       0.3845
     46  O         -4.1840    5.6720   -6.5070 O.co2  21  TRP21      -0.2437
     47  OXT       -5.9640    6.8330   -6.0170 O.co2  21  TRP21      -0.2437
@<TRIPOS>BOND
     1    40    41   ar
     2    40    39   ar
     3    41    42   ar
     4    38    39   ar
     5    38    37   ar
     6    39    44   ar
     7    37    36   ar
     8    42    43   ar
     9    44    43   ar
    10    44    36   ar
    11    46    45   ar
    12    36    35    1
    13    47    45   ar
    14    45    34    1
    15    35    34    1
    16    34    33    1
    17     8     7    2
    18    33    31   am
    19    14    12   ar
    20    32    31    2
    21    16    15    2
    22     7     9   am
    23     7     2    1
    24    31    26    1
    25    10     9    1
    26    10    15    1
    27    10    11    1
    28    12    11    1
    29    12    13   ar
    30     2     1    1
    31     2     3    1
    32    15    17   am
    33     5     4    1
    34    26    25    1
    35    26    27    1
    36    24    23    2
    37    28    27    1
    38     4     3    1
    39     4     6    1
    40    17    18    1
    41    23    25   am
    42    23    18    1
    43    27    29    1
    44    18    19    1
    45    29    30    1
    46    19    21    1
    47    19    20    1
    48    22    21    1
