@<TRIPOS>MOLECULE
../1EDN/PCA3_17-21_NOBACKBONE.pdb
 26 23 0 0 0
SMALL
GASTEIGER

@<TRIPOS>ATOM
      1  CB        -5.7360   -1.8160   -1.1010 C.3    17  LEU17       0.0000
      2  CG        -6.9950   -2.5690   -1.5730 C.3    17  LEU17       0.0000
      3  CD1       -6.7530   -3.1800   -3.0080 C.3    17  LEU17       0.0000
      4  CD2       -7.2580   -3.7400   -0.6960 C.3    17  LEU17       0.0000
      5  CB        -9.1090    1.3410    0.3760 C.3    18  ASP18       0.1258
      6  CG       -10.1470    2.2990    0.9520 C.2    18  ASP18       0.3654
      7  OD1      -11.0720    2.5310    0.1500 O.co2  18  ASP18      -0.2456
      8  OD2      -10.1960    2.6850    2.1610 O.co2  18  ASP18      -0.2456
      9  CB        -5.3140    3.8890    3.0670 C.3    19  ILE19       0.0000
     10  CG2       -4.6600    5.0630    3.8540 C.3    19  ILE19       0.0000
     11  CG1       -6.1440    2.9790    3.9890 C.3    19  ILE19       0.0000
     12  CD1       -5.5170    2.2940    5.2130 C.3    19  ILE19       0.0000
     13  CB        -2.4460    5.7340   -1.0120 C.3    20  ILE20       0.0000
     14  CG2       -2.3030    7.0110   -0.1100 C.3    20  ILE20       0.0000
     15  CG1       -1.4300    4.6170   -0.6100 C.3    20  ILE20       0.0000
     16  CD1        0.0800    4.9990   -0.7110 C.3    20  ILE20       0.0000
     17  CB        -6.2680    3.7450   -4.8170 C.3    21  TRP21       0.0327
     18  CG        -6.5090    2.9660   -6.0890 C.ar   21  TRP21      -0.0013
     19  CD1       -7.0550    3.4090   -7.2190 C.ar   21  TRP21       0.0946
     20  NE1       -7.1560    2.4190   -8.1260 N.ar   21  TRP21      -0.2442
     21  CE2       -6.6880    1.2600   -7.6470 C.ar   21  TRP21       0.0810
     22  CZ2       -6.5320   -0.1050   -8.0600 C.ar   21  TRP21       0.0191
     23  CH2       -5.9630   -1.0770   -7.2340 C.ar   21  TRP21       0.0015
     24  CZ3       -5.4330   -0.7150   -5.9030 C.ar   21  TRP21       0.0001
     25  CE3       -5.5290    0.6400   -5.5430 C.ar   21  TRP21       0.0012
     26  CD2       -6.2440    1.5830   -6.3190 C.ar   21  TRP21       0.0152
@<TRIPOS>BOND
     1    20    21   ar
     2    20    19   ar
     3    22    21   ar
     4    22    23   ar
     5    21    26   ar
     6    23    24   ar
     7    19    18   ar
     8    26    18   ar
     9    26    25   ar
    10    18    17    1
    11    24    25   ar
    12     3     2    1
    13     2     1    1
    14     2     4    1
    15    13    15    1
    16    13    14    1
    17    16    15    1
    18     7     6   ar
    19     5     6    1
    20     6     8   ar
    21     9    10    1
    22     9    11    1
    23    11    12    1
@<TRIPOS>MOLECULE
156690
 70 73 0 0 0
SMALL
GASTEIGER

@<TRIPOS>ATOM
      1 S          -5.0301   -0.3082   -4.5322 S.O2    1  LIG11       0.0741
      2 O          -5.5603    1.1369    1.5443 O.2     1  LIG11      -0.2756
      3 O          -3.9026    0.5635   -4.3132 O.2     1  LIG11      -0.1499
      4 O          -4.9698   -1.3465   -5.5433 O.2     1  LIG11      -0.1499
      5 O          -2.6807    5.4977   -1.6793 O.2     1  LIG11      -0.4436
      6 O          -7.7334    1.6539   -7.8475 O.2     1  LIG11      -0.3578
      7 N          -3.4998    0.1745    1.9273 N.am    1  LIG11      -0.3002
      8 N          -6.4508    0.5795   -4.7975 N.pl3   1  LIG11      -0.1965
      9 N          -1.2301    4.5309   -0.2431 N.ar    1  LIG11      -0.2175
     10 N          -7.7022    0.8050   -6.7616 N.ar    1  LIG11      -0.0614
     11 C          -5.8400    2.3427    4.1363 C.3     1  LIG11      -0.0295
     12 C          -4.7596    1.2754    3.7934 C.3     1  LIG11       0.0290
     13 C          -5.7844    2.5966    5.6575 C.3     1  LIG11      -0.0596
     14 C          -5.5418    3.6718    3.4181 C.3     1  LIG11      -0.0596
     15 C          -7.2690    1.8772    3.7981 C.3     1  LIG11      -0.0596
     16 C          -4.6506    0.8640    2.3269 C.2     1  LIG11       0.2161
     17 C          -3.3324   -0.2275    0.5107 C.3     1  LIG11       0.0400
     18 C          -3.6587    0.8693   -0.4884 C.ar    1  LIG11      -0.0216
     19 C          -4.7278    0.8053   -1.4242 C.ar    1  LIG11      -0.0113
     20 C          -5.4724   -0.4497   -1.7315 C.ar    1  LIG11       0.0090
     21 C          -2.6371   -0.5237    2.8696 C.3     1  LIG11       0.0035
     22 C          -2.8848    2.0499   -0.3774 C.ar    1  LIG11      -0.0442
     23 C          -5.5218   -1.0933   -2.9912 C.ar    1  LIG11       0.1162
     24 C          -5.0787    2.0117   -2.0595 C.ar    1  LIG11      -0.0529
     25 C          -3.1860    3.2060   -1.1003 C.ar    1  LIG11       0.0372
     26 C          -4.3178    3.1835   -1.9144 C.ar    1  LIG11      -0.0489
     27 C          -6.1806   -1.0928   -0.6924 C.ar    1  LIG11      -0.0521
     28 C          -6.1272   -2.3632   -3.1400 C.ar    1  LIG11      -0.0345
     29 C          -6.7927   -2.3415   -0.8436 C.ar    1  LIG11      -0.0611
     30 C          -2.3307    4.3808   -0.9613 C.ar    1  LIG11       0.2271
     31 C          -6.7435   -2.9912   -2.0645 C.ar    1  LIG11      -0.0599
     32 C          -6.6641    1.2000   -6.0215 C.ar    1  LIG11       0.1837
     33 C          -6.0418    2.3529   -6.5569 C.ar    1  LIG11       0.0342
     34 C          -6.7542    2.5853   -7.7172 C.ar    1  LIG11       0.1390
     35 C          -4.9529    3.1865   -6.0062 C.3     1  LIG11      -0.0330
     36 C          -1.7130    6.4054   -1.3771 C.ar    1  LIG11       0.1125
     37 C          -0.8328    5.8161   -0.5080 C.ar    1  LIG11       0.0663
     38 C          -6.7023    3.6243   -8.7626 C.3     1  LIG11      -0.0034
     39 H          -7.2500   -0.0233   -4.5961 H       1  LIG11       0.1753
     40 H          -4.9623    0.3630    4.3688 H       1  LIG11       0.0364
     41 H          -3.7852    1.6719    4.1057 H       1  LIG11       0.0364
     42 H          -4.7902    2.9362    5.9686 H       1  LIG11       0.0235
     43 H          -6.0181    1.6831    6.2177 H       1  LIG11       0.0235
     44 H          -6.5064    3.3640    5.9595 H       1  LIG11       0.0235
     45 H          -4.5365    4.0338    3.6610 H       1  LIG11       0.0235
     46 H          -6.2547    4.4492    3.7162 H       1  LIG11       0.0235
     47 H          -5.6056    3.5746    2.3296 H       1  LIG11       0.0235
     48 H          -7.4657    0.8790    4.2024 H       1  LIG11       0.0235
     49 H          -7.4609    1.8508    2.7223 H       1  LIG11       0.0235
     50 H          -8.0143    2.5608    4.2240 H       1  LIG11       0.0235
     51 H          -3.8929   -1.1511    0.3611 H       1  LIG11       0.0514
     52 H          -2.2773   -0.4920    0.3591 H       1  LIG11       0.0514
     53 H          -2.7697   -0.1987    3.9012 H       1  LIG11       0.0429
     54 H          -1.5935   -0.3604    2.5850 H       1  LIG11       0.0429
     55 H          -2.8665   -1.5928    2.8178 H       1  LIG11       0.0429
     56 H          -2.0467    2.0704    0.3201 H       1  LIG11       0.0628
     57 H          -5.9506    2.0553   -2.7064 H       1  LIG11       0.0624
     58 H          -4.6178    4.0715   -2.4653 H       1  LIG11       0.0625
     59 H          -6.2548   -0.6231    0.2850 H       1  LIG11       0.0624
     60 H          -6.1491   -2.8628   -4.1083 H       1  LIG11       0.0637
     61 H          -7.2994   -2.7996    0.0027 H       1  LIG11       0.0618
     62 H          -7.2107   -3.9642   -2.1894 H       1  LIG11       0.0618
     63 H          -4.6923    2.9020   -4.9861 H       1  LIG11       0.0280
     64 H          -5.2586    4.2388   -5.9769 H       1  LIG11       0.0280
     65 H          -4.0559    3.1081   -6.6278 H       1  LIG11       0.0280
     66 H          -1.7951    7.3751   -1.8452 H       1  LIG11       0.1046
     67 H           0.0565    6.2395   -0.0631 H       1  LIG11       0.0862
     68 H          -7.3352    3.3618   -9.6172 H       1  LIG11       0.0309
     69 H          -5.6790    3.7556   -9.1264 H       1  LIG11       0.0309
     70 H          -7.0531    4.5806   -8.3632 H       1  LIG11       0.0309
@<TRIPOS>BOND
     1     1     3    2
     2     1     4    2
     3     1     8    1
     4     1    23    1
     5     2    16    2
     6     5    30   ar
     7     5    36   ar
     8     6    10   ar
     9     6    34   ar
    10     7    16   am
    11     7    17    1
    12     7    21    1
    13     8    32    1
    14     9    30   ar
    15     9    37   ar
    16    10    32   ar
    17    11    12    1
    18    11    13    1
    19    11    14    1
    20    11    15    1
    21    12    16    1
    22    17    18    1
    23    18    19   ar
    24    18    22   ar
    25    19    20    1
    26    19    24   ar
    27    20    23   ar
    28    20    27   ar
    29    22    25   ar
    30    23    28   ar
    31    24    26   ar
    32    25    26   ar
    33    25    30    1
    34    27    29   ar
    35    28    31   ar
    36    29    31   ar
    37    32    33   ar
    38    33    34   ar
    39    33    35    1
    40    34    38    1
    41    36    37   ar
    42     8    39    1
    43    12    40    1
    44    12    41    1
    45    13    42    1
    46    13    43    1
    47    13    44    1
    48    14    45    1
    49    14    46    1
    50    14    47    1
    51    15    48    1
    52    15    49    1
    53    15    50    1
    54    17    51    1
    55    17    52    1
    56    21    53    1
    57    21    54    1
    58    21    55    1
    59    22    56    1
    60    24    57    1
    61    26    58    1
    62    27    59    1
    63    28    60    1
    64    29    61    1
    65    31    62    1
    66    35    63    1
    67    35    64    1
    68    35    65    1
    69    36    66    1
    70    37    67    1
    71    38    68    1
    72    38    69    1
    73    38    70    1
@<TRIPOS>MOLECULE
../1EDN/PCA3_17-21.pdb
 47 48 0 0 0
SMALL
GASTEIGER

@<TRIPOS>ATOM
      1  N         -4.2370    0.0490   -1.5930 N.3    17  LEU17      -0.1231
      2  CA        -5.5250   -0.5610   -1.9200 C.3    17  LEU17       0.1693
      3  CB        -5.7360   -1.8160   -1.1010 C.3    17  LEU17       0.0284
      4  CG        -6.9950   -2.5690   -1.5730 C.3    17  LEU17       0.0019
      5  CD1       -6.7530   -3.1800   -3.0080 C.3    17  LEU17       0.0001
      6  CD2       -7.2580   -3.7400   -0.6960 C.3    17  LEU17       0.0001
      7  C         -6.6810    0.4320   -1.9250 C.2    17  LEU17       0.2592
      8  O         -7.3270    0.6200   -2.9560 O.2    17  LEU17      -0.2718
      9  N         -6.9500    1.1080   -0.7900 N.am   18  ASP18      -0.1960
     10  CA        -8.0880    2.0070   -0.5710 C.3    18  ASP18       0.1840
     11  CB        -9.1090    1.3410    0.3760 C.3    18  ASP18       0.1450
     12  CG       -10.1470    2.2990    0.9520 C.2    18  ASP18       0.3671
     13  OD1      -11.0720    2.5310    0.1500 O.co2  18  ASP18      -0.2456
     14  OD2      -10.1960    2.6850    2.1610 O.co2  18  ASP18      -0.2456
     15  C         -7.6280    3.3500    0.0060 C.2    18  ASP18       0.2622
     16  O         -7.9950    4.4650   -0.3580 O.2    18  ASP18      -0.2715
     17  N         -6.8140    3.2050    1.0390 N.am   19  ILE19      -0.1963
     18  CA        -6.1800    4.3790    1.8160 C.3    19  ILE19       0.1727
     19  CB        -5.3140    3.8890    3.0670 C.3    19  ILE19       0.0290
     20  CG2       -4.6600    5.0630    3.8540 C.3    19  ILE19       0.0023
     21  CG1       -6.1440    2.9790    3.9890 C.3    19  ILE19       0.0022
     22  CD1       -5.5170    2.2940    5.2130 C.3    19  ILE19       0.0001
     23  C         -5.2670    5.2520    0.8640 C.2    19  ILE19       0.2616
     24  O         -5.3920    6.4650    0.9090 O.2    19  ILE19      -0.2715
     25  N         -4.4890    4.6060    0.0020 N.am   20  ILE20      -0.1963
     26  CA        -3.9690    5.2910   -1.1850 C.3    20  ILE20       0.1727
     27  CB        -2.4460    5.7340   -1.0120 C.3    20  ILE20       0.0290
     28  CG2       -2.3030    7.0110   -0.1100 C.3    20  ILE20       0.0023
     29  CG1       -1.4300    4.6170   -0.6100 C.3    20  ILE20       0.0022
     30  CD1        0.0800    4.9990   -0.7110 C.3    20  ILE20       0.0001
     31  C         -4.1660    4.3690   -2.4130 C.2    20  ILE20       0.2617
     32  O         -3.9200    3.1710   -2.5010 O.2    20  ILE20      -0.2715
     33  N         -4.6410    5.0460   -3.5090 N.am   21  TRP21      -0.1938
     34  CA        -4.8980    4.4430   -4.8120 C.3    21  TRP21       0.2021
     35  CB        -6.2680    3.7450   -4.8170 C.3    21  TRP21       0.0612
     36  CG        -6.5090    2.9660   -6.0890 C.ar   21  TRP21       0.0007
     37  CD1       -7.0550    3.4090   -7.2190 C.ar   21  TRP21       0.0946
     38  NE1       -7.1560    2.4190   -8.1260 N.ar   21  TRP21      -0.2442
     39  CE2       -6.6880    1.2600   -7.6470 C.ar   21  TRP21       0.0810
     40  CZ2       -6.5320   -0.1050   -8.0600 C.ar   21  TRP21       0.0191
     41  CH2       -5.9630   -1.0770   -7.2340 C.ar   21  TRP21       0.0015
     42  CZ3       -5.4330   -0.7150   -5.9030 C.ar   21  TRP21       0.0001
     43  CE3       -5.5290    0.6400   -5.5430 C.ar   21  TRP21       0.0012
     44  CD2       -6.2440    1.5830   -6.3190 C.ar   21  TRP21       0.0152
     45  C         -4.7460    5.5030   -5.9410 C.2    21  TRP21       0.3845
     46  O         -5.6740    6.3580   -6.0770 O.co2  21  TRP21      -0.2437
     47  OXT       -3.7150    5.4030   -6.6310 O.co2  21  TRP21      -0.2437
@<TRIPOS>BOND
     1    38    39   ar
     2    38    37   ar
     3    40    39   ar
     4    40    41   ar
     5    39    44   ar
     6    41    42   ar
     7    37    36   ar
     8    47    45   ar
     9    44    36   ar
    10    44    43   ar
    11    36    35    1
    12    46    45   ar
    13    45    34    1
    14    42    43   ar
    15    35    34    1
    16    34    33    1
    17    33    31   am
    18     5     4    1
    19     8     7    2
    20    32    31    2
    21    31    26    1
    22     7     2    1
    23     7     9   am
    24     2     1    1
    25     2     3    1
    26     4     3    1
    27     4     6    1
    28    26    27    1
    29    26    25    1
    30    27    29    1
    31    27    28    1
    32     9    10    1
    33    30    29    1
    34    10    15    1
    35    10    11    1
    36    16    15    2
    37    25    23   am
    38    15    17   am
    39    13    12   ar
    40    11    12    1
    41    23    24    2
    42    23    18    1
    43    12    14   ar
    44    17    18    1
    45    18    19    1
    46    19    20    1
    47    19    21    1
    48    21    22    1
