@<TRIPOS>MOLECULE
../1EDN/PCA3_17-21_NOBACKBONE.pdb
 26 23 0 0 0
SMALL
GASTEIGER

@<TRIPOS>ATOM
      1  CB        -5.7360   -1.8160   -1.1010 C.3    17  LEU17       0.0000
      2  CG        -6.9950   -2.5690   -1.5730 C.3    17  LEU17       0.0000
      3  CD1       -6.7530   -3.1800   -3.0080 C.3    17  LEU17       0.0000
      4  CD2       -7.2580   -3.7400   -0.6960 C.3    17  LEU17       0.0000
      5  CB        -9.1090    1.3410    0.3760 C.3    18  ASP18       0.1258
      6  CG       -10.1470    2.2990    0.9520 C.2    18  ASP18       0.3654
      7  OD1      -11.0720    2.5310    0.1500 O.co2  18  ASP18      -0.2456
      8  OD2      -10.1960    2.6850    2.1610 O.co2  18  ASP18      -0.2456
      9  CB        -5.3140    3.8890    3.0670 C.3    19  ILE19       0.0000
     10  CG2       -4.6600    5.0630    3.8540 C.3    19  ILE19       0.0000
     11  CG1       -6.1440    2.9790    3.9890 C.3    19  ILE19       0.0000
     12  CD1       -5.5170    2.2940    5.2130 C.3    19  ILE19       0.0000
     13  CB        -2.4460    5.7340   -1.0120 C.3    20  ILE20       0.0000
     14  CG2       -2.3030    7.0110   -0.1100 C.3    20  ILE20       0.0000
     15  CG1       -1.4300    4.6170   -0.6100 C.3    20  ILE20       0.0000
     16  CD1        0.0800    4.9990   -0.7110 C.3    20  ILE20       0.0000
     17  CB        -6.2680    3.7450   -4.8170 C.3    21  TRP21       0.0327
     18  CG        -6.5090    2.9660   -6.0890 C.ar   21  TRP21      -0.0013
     19  CD1       -7.0550    3.4090   -7.2190 C.ar   21  TRP21       0.0946
     20  NE1       -7.1560    2.4190   -8.1260 N.ar   21  TRP21      -0.2442
     21  CE2       -6.6880    1.2600   -7.6470 C.ar   21  TRP21       0.0810
     22  CZ2       -6.5320   -0.1050   -8.0600 C.ar   21  TRP21       0.0191
     23  CH2       -5.9630   -1.0770   -7.2340 C.ar   21  TRP21       0.0015
     24  CZ3       -5.4330   -0.7150   -5.9030 C.ar   21  TRP21       0.0001
     25  CE3       -5.5290    0.6400   -5.5430 C.ar   21  TRP21       0.0012
     26  CD2       -6.2440    1.5830   -6.3190 C.ar   21  TRP21       0.0152
@<TRIPOS>BOND
     1    20    21   ar
     2    20    19   ar
     3    22    21   ar
     4    22    23   ar
     5    21    26   ar
     6    23    24   ar
     7    19    18   ar
     8    26    18   ar
     9    26    25   ar
    10    18    17    1
    11    24    25   ar
    12     3     2    1
    13     2     1    1
    14     2     4    1
    15    13    15    1
    16    13    14    1
    17    16    15    1
    18     7     6   ar
    19     5     6    1
    20     6     8   ar
    21     9    10    1
    22     9    11    1
    23    11    12    1
@<TRIPOS>MOLECULE
108002
 38 42 0 0 0
SMALL
GASTEIGER

@<TRIPOS>ATOM
      1 O          -7.2923    4.5834   -3.7214 O.co2   1  LIG11      -0.5495
      2 O          -8.6637    2.8705   -4.2993 O.co2   1  LIG11      -0.5495
      3 O          -0.7662    2.8952   -1.5624 O.3     1  LIG11      -0.4920
      4 O          -5.3514   -0.0415   -1.3983 O.3     1  LIG11      -0.4858
      5 O          -4.8664   -2.3081   -6.3273 O.3     1  LIG11      -0.4526
      6 O          -6.3170   -1.9212   -8.2148 O.3     1  LIG11      -0.4526
      7 O          -7.7780    0.6711    2.7587 O.3     1  LIG11      -0.4950
      8 O          -5.6798   -2.8963    0.0673 O.co2   1  LIG11      -0.5463
      9 O          -4.2834   -2.9991   -1.7313 O.co2   1  LIG11      -0.5463
     10 C          -6.5235    2.3405   -3.4364 C.3     1  LIG11       0.0203
     11 C          -5.7759    2.7835   -2.1606 C.3     1  LIG11       0.0218
     12 C          -5.4987    2.3449   -4.5981 C.3     1  LIG11       0.0184
     13 C          -4.3225    2.5856   -2.5171 C.ar    1  LIG11      -0.0320
     14 C          -4.1646    2.3622   -3.8845 C.ar    1  LIG11      -0.0353
     15 C          -5.7128    1.1944   -5.5746 C.ar    1  LIG11      -0.0356
     16 C          -6.2626    2.1187   -0.8804 C.ar    1  LIG11       0.0026
     17 C          -7.5909    3.3588   -3.8406 C.2     1  LIG11       0.0466
     18 C          -3.2205    2.7370   -1.6806 C.ar    1  LIG11      -0.0159
     19 C          -2.8956    2.2711   -4.4397 C.ar    1  LIG11      -0.0542
     20 C          -1.9405    2.6815   -2.2328 C.ar    1  LIG11       0.1208
     21 C          -6.0693    0.7658   -0.5513 C.ar    1  LIG11       0.1283
     22 C          -5.1237   -0.0696   -5.3962 C.ar    1  LIG11      -0.0124
     23 C          -6.5734    1.4003   -6.6818 C.ar    1  LIG11      -0.0543
     24 C          -1.7859    2.4178   -3.6037 C.ar    1  LIG11      -0.0196
     25 C          -6.9838    2.9231    0.0261 C.ar    1  LIG11      -0.0510
     26 C          -5.3757   -1.0469   -6.3364 C.ar    1  LIG11       0.1665
     27 C          -6.8175    0.3880   -7.6153 C.ar    1  LIG11      -0.0159
     28 C          -6.5346    0.2672    0.6760 C.ar    1  LIG11       0.0221
     29 C          -7.4690    2.4082    1.2300 C.ar    1  LIG11      -0.0194
     30 C          -6.1983   -0.8245   -7.4161 C.ar    1  LIG11       0.1662
     31 C          -7.2545    1.0737    1.5570 C.ar    1  LIG11       0.1236
     32 C          -0.8067    3.6306   -0.3407 C.3     1  LIG11       0.0893
     33 C          -5.5255   -2.8721   -7.4713 C.3     1  LIG11       0.2332
     34 C          -5.9825   -1.3118   -1.6928 C.3     1  LIG11       0.1287
     35 C          -0.6500    5.1358   -0.5738 C.3     1  LIG11      -0.0215
     36 C          -5.2243   -2.4941   -1.0489 C.2     1  LIG11       0.0789
     37 C          -7.8813   -0.7402    2.9317 C.3     1  LIG11       0.0788
     38 C          -1.8820    5.8092   -1.1607 C.3     1  LIG11      -0.0622
@<TRIPOS>BOND
     1     1    17   ar
     2     2    17   ar
     3     3    20    1
     4     3    32    1
     5     4    21    1
     6     4    34    1
     7     5    26    1
     8     5    33    1
     9     6    30    1
    10     6    33    1
    11     7    31    1
    12     7    37    1
    13     8    36   ar
    14     9    36   ar
    15    10    11    1
    16    10    12    1
    17    10    17    1
    18    11    13    1
    19    11    16    1
    20    12    14    1
    21    12    15    1
    22    13    14   ar
    23    13    18   ar
    24    14    19   ar
    25    15    22   ar
    26    15    23   ar
    27    16    21   ar
    28    16    25   ar
    29    18    20   ar
    30    19    24   ar
    31    20    24   ar
    32    21    28   ar
    33    22    26   ar
    34    23    27   ar
    35    25    29   ar
    36    26    30   ar
    37    27    30   ar
    38    28    31   ar
    39    29    31   ar
    40    32    35    1
    41    34    36    1
    42    35    38    1
@<TRIPOS>MOLECULE
../1EDN/PCA3_17-21.pdb
 47 48 0 0 0
SMALL
GASTEIGER

@<TRIPOS>ATOM
      1  N         -4.2370    0.0490   -1.5930 N.3    17  LEU17      -0.1231
      2  CA        -5.5250   -0.5610   -1.9200 C.3    17  LEU17       0.1693
      3  CB        -5.7360   -1.8160   -1.1010 C.3    17  LEU17       0.0284
      4  CG        -6.9950   -2.5690   -1.5730 C.3    17  LEU17       0.0019
      5  CD1       -6.7530   -3.1800   -3.0080 C.3    17  LEU17       0.0001
      6  CD2       -7.2580   -3.7400   -0.6960 C.3    17  LEU17       0.0001
      7  C         -6.6810    0.4320   -1.9250 C.2    17  LEU17       0.2592
      8  O         -7.3270    0.6200   -2.9560 O.2    17  LEU17      -0.2718
      9  N         -6.9500    1.1080   -0.7900 N.am   18  ASP18      -0.1960
     10  CA        -8.0880    2.0070   -0.5710 C.3    18  ASP18       0.1840
     11  CB        -9.1090    1.3410    0.3760 C.3    18  ASP18       0.1450
     12  CG       -10.1470    2.2990    0.9520 C.2    18  ASP18       0.3671
     13  OD1      -11.0720    2.5310    0.1500 O.co2  18  ASP18      -0.2456
     14  OD2      -10.1960    2.6850    2.1610 O.co2  18  ASP18      -0.2456
     15  C         -7.6280    3.3500    0.0060 C.2    18  ASP18       0.2622
     16  O         -7.9950    4.4650   -0.3580 O.2    18  ASP18      -0.2715
     17  N         -6.8140    3.2050    1.0390 N.am   19  ILE19      -0.1963
     18  CA        -6.1800    4.3790    1.8160 C.3    19  ILE19       0.1727
     19  CB        -5.3140    3.8890    3.0670 C.3    19  ILE19       0.0290
     20  CG2       -4.6600    5.0630    3.8540 C.3    19  ILE19       0.0023
     21  CG1       -6.1440    2.9790    3.9890 C.3    19  ILE19       0.0022
     22  CD1       -5.5170    2.2940    5.2130 C.3    19  ILE19       0.0001
     23  C         -5.2670    5.2520    0.8640 C.2    19  ILE19       0.2616
     24  O         -5.3920    6.4650    0.9090 O.2    19  ILE19      -0.2715
     25  N         -4.4890    4.6060    0.0020 N.am   20  ILE20      -0.1963
     26  CA        -3.9690    5.2910   -1.1850 C.3    20  ILE20       0.1727
     27  CB        -2.4460    5.7340   -1.0120 C.3    20  ILE20       0.0290
     28  CG2       -2.3030    7.0110   -0.1100 C.3    20  ILE20       0.0023
     29  CG1       -1.4300    4.6170   -0.6100 C.3    20  ILE20       0.0022
     30  CD1        0.0800    4.9990   -0.7110 C.3    20  ILE20       0.0001
     31  C         -4.1660    4.3690   -2.4130 C.2    20  ILE20       0.2617
     32  O         -3.9200    3.1710   -2.5010 O.2    20  ILE20      -0.2715
     33  N         -4.6410    5.0460   -3.5090 N.am   21  TRP21      -0.1938
     34  CA        -4.8980    4.4430   -4.8120 C.3    21  TRP21       0.2021
     35  CB        -6.2680    3.7450   -4.8170 C.3    21  TRP21       0.0612
     36  CG        -6.5090    2.9660   -6.0890 C.ar   21  TRP21       0.0007
     37  CD1       -7.0550    3.4090   -7.2190 C.ar   21  TRP21       0.0946
     38  NE1       -7.1560    2.4190   -8.1260 N.ar   21  TRP21      -0.2442
     39  CE2       -6.6880    1.2600   -7.6470 C.ar   21  TRP21       0.0810
     40  CZ2       -6.5320   -0.1050   -8.0600 C.ar   21  TRP21       0.0191
     41  CH2       -5.9630   -1.0770   -7.2340 C.ar   21  TRP21       0.0015
     42  CZ3       -5.4330   -0.7150   -5.9030 C.ar   21  TRP21       0.0001
     43  CE3       -5.5290    0.6400   -5.5430 C.ar   21  TRP21       0.0012
     44  CD2       -6.2440    1.5830   -6.3190 C.ar   21  TRP21       0.0152
     45  C         -4.7460    5.5030   -5.9410 C.2    21  TRP21       0.3845
     46  O         -5.6740    6.3580   -6.0770 O.co2  21  TRP21      -0.2437
     47  OXT       -3.7150    5.4030   -6.6310 O.co2  21  TRP21      -0.2437
@<TRIPOS>BOND
     1    38    39   ar
     2    38    37   ar
     3    40    39   ar
     4    40    41   ar
     5    39    44   ar
     6    41    42   ar
     7    37    36   ar
     8    47    45   ar
     9    44    36   ar
    10    44    43   ar
    11    36    35    1
    12    46    45   ar
    13    45    34    1
    14    42    43   ar
    15    35    34    1
    16    34    33    1
    17    33    31   am
    18     5     4    1
    19     8     7    2
    20    32    31    2
    21    31    26    1
    22     7     2    1
    23     7     9   am
    24     2     1    1
    25     2     3    1
    26     4     3    1
    27     4     6    1
    28    26    27    1
    29    26    25    1
    30    27    29    1
    31    27    28    1
    32     9    10    1
    33    30    29    1
    34    10    15    1
    35    10    11    1
    36    16    15    2
    37    25    23   am
    38    15    17   am
    39    13    12   ar
    40    11    12    1
    41    23    24    2
    42    23    18    1
    43    12    14   ar
    44    17    18    1
    45    18    19    1
    46    19    20    1
    47    19    21    1
    48    21    22    1
