@<TRIPOS>MOLECULE
../1EDN/PCA3_17-21_NOBACKBONE.pdb
 26 23 0 0 0
SMALL
GASTEIGER

@<TRIPOS>ATOM
      1  CB        -5.7360   -1.8160   -1.1010 C.3    17  LEU17       0.0000
      2  CG        -6.9950   -2.5690   -1.5730 C.3    17  LEU17       0.0000
      3  CD1       -6.7530   -3.1800   -3.0080 C.3    17  LEU17       0.0000
      4  CD2       -7.2580   -3.7400   -0.6960 C.3    17  LEU17       0.0000
      5  CB        -9.1090    1.3410    0.3760 C.3    18  ASP18       0.1258
      6  CG       -10.1470    2.2990    0.9520 C.2    18  ASP18       0.3654
      7  OD1      -11.0720    2.5310    0.1500 O.co2  18  ASP18      -0.2456
      8  OD2      -10.1960    2.6850    2.1610 O.co2  18  ASP18      -0.2456
      9  CB        -5.3140    3.8890    3.0670 C.3    19  ILE19       0.0000
     10  CG2       -4.6600    5.0630    3.8540 C.3    19  ILE19       0.0000
     11  CG1       -6.1440    2.9790    3.9890 C.3    19  ILE19       0.0000
     12  CD1       -5.5170    2.2940    5.2130 C.3    19  ILE19       0.0000
     13  CB        -2.4460    5.7340   -1.0120 C.3    20  ILE20       0.0000
     14  CG2       -2.3030    7.0110   -0.1100 C.3    20  ILE20       0.0000
     15  CG1       -1.4300    4.6170   -0.6100 C.3    20  ILE20       0.0000
     16  CD1        0.0800    4.9990   -0.7110 C.3    20  ILE20       0.0000
     17  CB        -6.2680    3.7450   -4.8170 C.3    21  TRP21       0.0327
     18  CG        -6.5090    2.9660   -6.0890 C.ar   21  TRP21      -0.0013
     19  CD1       -7.0550    3.4090   -7.2190 C.ar   21  TRP21       0.0946
     20  NE1       -7.1560    2.4190   -8.1260 N.ar   21  TRP21      -0.2442
     21  CE2       -6.6880    1.2600   -7.6470 C.ar   21  TRP21       0.0810
     22  CZ2       -6.5320   -0.1050   -8.0600 C.ar   21  TRP21       0.0191
     23  CH2       -5.9630   -1.0770   -7.2340 C.ar   21  TRP21       0.0015
     24  CZ3       -5.4330   -0.7150   -5.9030 C.ar   21  TRP21       0.0001
     25  CE3       -5.5290    0.6400   -5.5430 C.ar   21  TRP21       0.0012
     26  CD2       -6.2440    1.5830   -6.3190 C.ar   21  TRP21       0.0152
@<TRIPOS>BOND
     1    20    21   ar
     2    20    19   ar
     3    22    21   ar
     4    22    23   ar
     5    21    26   ar
     6    23    24   ar
     7    19    18   ar
     8    26    18   ar
     9    26    25   ar
    10    18    17    1
    11    24    25   ar
    12     3     2    1
    13     2     1    1
    14     2     4    1
    15    13    15    1
    16    13    14    1
    17    16    15    1
    18     7     6   ar
    19     5     6    1
    20     6     8   ar
    21     9    10    1
    22     9    11    1
    23    11    12    1
@<TRIPOS>MOLECULE
01479498K
 34 38 0 0 0
SMALL
GASTEIGER

@<TRIPOS>ATOM
      1 C          -7.7198    4.1888   -3.1489 C.3     1  LIG11       0.1526
      2 C          -6.9423    3.4264   -4.1837 C.2     1  LIG11       0.0278
      3 C          -6.8976    4.5477   -1.9007 C.ar    1  LIG11       0.0009
      4 O          -8.9731    3.5522   -2.7727 O.3     1  LIG11      -0.4789
      5 C          -7.0832    2.1040   -4.3914 C.2     1  LIG11       0.0016
      6 C          -6.0284    4.3137   -5.0233 C.2     1  LIG11       0.0721
      7 C          -6.9077    3.7592   -0.7348 C.ar    1  LIG11      -0.0091
      8 C          -6.0624    5.6942   -1.9323 C.ar    1  LIG11      -0.0511
      9 C          -8.9433    2.1836   -2.7400 C.ar    1  LIG11       0.1298
     10 C          -8.0154    1.4300   -3.4617 C.ar    1  LIG11       0.0283
     11 C          -6.3452    1.4102   -5.4665 C.ar    1  LIG11      -0.0165
     12 O          -4.7901    4.1613   -4.8285 O.co2   1  LIG11      -0.5448
     13 O          -6.6337    5.1608   -5.7399 O.co2   1  LIG11      -0.5448
     14 C          -6.1210    4.1394    0.3319 C.ar    1  LIG11       0.1666
     15 C          -5.2714    6.0559   -0.8348 C.ar    1  LIG11      -0.0158
     16 C          -9.8593    1.5659   -1.8889 C.ar    1  LIG11      -0.0158
     17 C          -7.9708    0.0420   -3.2569 C.ar    1  LIG11      -0.0087
     18 C          -6.9565    1.1843   -6.7029 C.ar    1  LIG11      -0.0505
     19 C          -5.0600    0.9088   -5.2379 C.ar    1  LIG11      -0.0505
     20 C          -5.3250    5.2581    0.2846 C.ar    1  LIG11       0.1662
     21 O          -6.0271    3.4826    1.5205 O.3     1  LIG11      -0.4526
     22 C          -9.7796    0.1916   -1.6704 C.ar    1  LIG11      -0.0164
     23 C          -8.8017   -0.5667   -2.3154 C.ar    1  LIG11       0.1217
     24 C          -6.3017    0.4328   -7.6822 C.ar    1  LIG11      -0.0194
     25 C          -4.4086    0.1505   -6.2167 C.ar    1  LIG11      -0.0194
     26 O          -4.6280    5.4479    1.4379 O.3     1  LIG11      -0.4526
     27 C          -5.0567    4.3016    2.1998 C.3     1  LIG11       0.2332
     28 O          -8.7364   -1.8768   -1.9276 O.3     1  LIG11      -0.4893
     29 C          -5.0376   -0.1087   -7.4357 C.ar    1  LIG11       0.1201
     30 C          -7.5035   -2.5831   -2.1325 C.3     1  LIG11       0.0946
     31 O          -4.5216   -0.8591   -8.4588 O.3     1  LIG11      -0.4951
     32 C          -7.7657   -4.0252   -1.6986 C.3     1  LIG11      -0.0281
     33 C          -6.3590   -2.0119   -1.2904 C.3     1  LIG11      -0.0281
     34 C          -3.3755   -1.6396   -8.1461 C.3     1  LIG11       0.0788
@<TRIPOS>BOND
     1     1     4    1
     2     1     2    1
     3     1     3    1
     4     2     5    2
     5     2     6    1
     6     3     8   ar
     7     3     7   ar
     8     4     9    1
     9     5    10    1
    10     5    11    1
    11     6    13   ar
    12     6    12   ar
    13     7    14   ar
    14     8    15   ar
    15     9    16   ar
    16     9    10   ar
    17    10    17   ar
    18    11    18   ar
    19    11    19   ar
    20    14    21    1
    21    14    20   ar
    22    15    20   ar
    23    16    22   ar
    24    17    23   ar
    25    18    24   ar
    26    19    25   ar
    27    20    26    1
    28    21    27    1
    29    22    23   ar
    30    23    28    1
    31    24    29   ar
    32    25    29   ar
    33    26    27    1
    34    28    30    1
    35    29    31    1
    36    30    33    1
    37    30    32    1
    38    31    34    1
@<TRIPOS>MOLECULE
../1EDN/PCA3_17-21.pdb
 47 48 0 0 0
SMALL
GASTEIGER

@<TRIPOS>ATOM
      1  N         -4.2370    0.0490   -1.5930 N.3    17  LEU17      -0.1231
      2  CA        -5.5250   -0.5610   -1.9200 C.3    17  LEU17       0.1693
      3  CB        -5.7360   -1.8160   -1.1010 C.3    17  LEU17       0.0284
      4  CG        -6.9950   -2.5690   -1.5730 C.3    17  LEU17       0.0019
      5  CD1       -6.7530   -3.1800   -3.0080 C.3    17  LEU17       0.0001
      6  CD2       -7.2580   -3.7400   -0.6960 C.3    17  LEU17       0.0001
      7  C         -6.6810    0.4320   -1.9250 C.2    17  LEU17       0.2592
      8  O         -7.3270    0.6200   -2.9560 O.2    17  LEU17      -0.2718
      9  N         -6.9500    1.1080   -0.7900 N.am   18  ASP18      -0.1960
     10  CA        -8.0880    2.0070   -0.5710 C.3    18  ASP18       0.1840
     11  CB        -9.1090    1.3410    0.3760 C.3    18  ASP18       0.1450
     12  CG       -10.1470    2.2990    0.9520 C.2    18  ASP18       0.3671
     13  OD1      -11.0720    2.5310    0.1500 O.co2  18  ASP18      -0.2456
     14  OD2      -10.1960    2.6850    2.1610 O.co2  18  ASP18      -0.2456
     15  C         -7.6280    3.3500    0.0060 C.2    18  ASP18       0.2622
     16  O         -7.9950    4.4650   -0.3580 O.2    18  ASP18      -0.2715
     17  N         -6.8140    3.2050    1.0390 N.am   19  ILE19      -0.1963
     18  CA        -6.1800    4.3790    1.8160 C.3    19  ILE19       0.1727
     19  CB        -5.3140    3.8890    3.0670 C.3    19  ILE19       0.0290
     20  CG2       -4.6600    5.0630    3.8540 C.3    19  ILE19       0.0023
     21  CG1       -6.1440    2.9790    3.9890 C.3    19  ILE19       0.0022
     22  CD1       -5.5170    2.2940    5.2130 C.3    19  ILE19       0.0001
     23  C         -5.2670    5.2520    0.8640 C.2    19  ILE19       0.2616
     24  O         -5.3920    6.4650    0.9090 O.2    19  ILE19      -0.2715
     25  N         -4.4890    4.6060    0.0020 N.am   20  ILE20      -0.1963
     26  CA        -3.9690    5.2910   -1.1850 C.3    20  ILE20       0.1727
     27  CB        -2.4460    5.7340   -1.0120 C.3    20  ILE20       0.0290
     28  CG2       -2.3030    7.0110   -0.1100 C.3    20  ILE20       0.0023
     29  CG1       -1.4300    4.6170   -0.6100 C.3    20  ILE20       0.0022
     30  CD1        0.0800    4.9990   -0.7110 C.3    20  ILE20       0.0001
     31  C         -4.1660    4.3690   -2.4130 C.2    20  ILE20       0.2617
     32  O         -3.9200    3.1710   -2.5010 O.2    20  ILE20      -0.2715
     33  N         -4.6410    5.0460   -3.5090 N.am   21  TRP21      -0.1938
     34  CA        -4.8980    4.4430   -4.8120 C.3    21  TRP21       0.2021
     35  CB        -6.2680    3.7450   -4.8170 C.3    21  TRP21       0.0612
     36  CG        -6.5090    2.9660   -6.0890 C.ar   21  TRP21       0.0007
     37  CD1       -7.0550    3.4090   -7.2190 C.ar   21  TRP21       0.0946
     38  NE1       -7.1560    2.4190   -8.1260 N.ar   21  TRP21      -0.2442
     39  CE2       -6.6880    1.2600   -7.6470 C.ar   21  TRP21       0.0810
     40  CZ2       -6.5320   -0.1050   -8.0600 C.ar   21  TRP21       0.0191
     41  CH2       -5.9630   -1.0770   -7.2340 C.ar   21  TRP21       0.0015
     42  CZ3       -5.4330   -0.7150   -5.9030 C.ar   21  TRP21       0.0001
     43  CE3       -5.5290    0.6400   -5.5430 C.ar   21  TRP21       0.0012
     44  CD2       -6.2440    1.5830   -6.3190 C.ar   21  TRP21       0.0152
     45  C         -4.7460    5.5030   -5.9410 C.2    21  TRP21       0.3845
     46  O         -5.6740    6.3580   -6.0770 O.co2  21  TRP21      -0.2437
     47  OXT       -3.7150    5.4030   -6.6310 O.co2  21  TRP21      -0.2437
@<TRIPOS>BOND
     1    38    39   ar
     2    38    37   ar
     3    40    39   ar
     4    40    41   ar
     5    39    44   ar
     6    41    42   ar
     7    37    36   ar
     8    47    45   ar
     9    44    36   ar
    10    44    43   ar
    11    36    35    1
    12    46    45   ar
    13    45    34    1
    14    42    43   ar
    15    35    34    1
    16    34    33    1
    17    33    31   am
    18     5     4    1
    19     8     7    2
    20    32    31    2
    21    31    26    1
    22     7     2    1
    23     7     9   am
    24     2     1    1
    25     2     3    1
    26     4     3    1
    27     4     6    1
    28    26    27    1
    29    26    25    1
    30    27    29    1
    31    27    28    1
    32     9    10    1
    33    30    29    1
    34    10    15    1
    35    10    11    1
    36    16    15    2
    37    25    23   am
    38    15    17   am
    39    13    12   ar
    40    11    12    1
    41    23    24    2
    42    23    18    1
    43    12    14   ar
    44    17    18    1
    45    18    19    1
    46    19    20    1
    47    19    21    1
    48    21    22    1
