@<TRIPOS>MOLECULE
../1EDN/PCA3_17-21_NOBACKBONE.pdb
 26 23 0 0 0
SMALL
GASTEIGER

@<TRIPOS>ATOM
      1  CB        -5.7360   -1.8160   -1.1010 C.3    17  LEU17       0.0000
      2  CG        -6.9950   -2.5690   -1.5730 C.3    17  LEU17       0.0000
      3  CD1       -6.7530   -3.1800   -3.0080 C.3    17  LEU17       0.0000
      4  CD2       -7.2580   -3.7400   -0.6960 C.3    17  LEU17       0.0000
      5  CB        -9.1090    1.3410    0.3760 C.3    18  ASP18       0.1258
      6  CG       -10.1470    2.2990    0.9520 C.2    18  ASP18       0.3654
      7  OD1      -11.0720    2.5310    0.1500 O.co2  18  ASP18      -0.2456
      8  OD2      -10.1960    2.6850    2.1610 O.co2  18  ASP18      -0.2456
      9  CB        -5.3140    3.8890    3.0670 C.3    19  ILE19       0.0000
     10  CG2       -4.6600    5.0630    3.8540 C.3    19  ILE19       0.0000
     11  CG1       -6.1440    2.9790    3.9890 C.3    19  ILE19       0.0000
     12  CD1       -5.5170    2.2940    5.2130 C.3    19  ILE19       0.0000
     13  CB        -2.4460    5.7340   -1.0120 C.3    20  ILE20       0.0000
     14  CG2       -2.3030    7.0110   -0.1100 C.3    20  ILE20       0.0000
     15  CG1       -1.4300    4.6170   -0.6100 C.3    20  ILE20       0.0000
     16  CD1        0.0800    4.9990   -0.7110 C.3    20  ILE20       0.0000
     17  CB        -6.2680    3.7450   -4.8170 C.3    21  TRP21       0.0327
     18  CG        -6.5090    2.9660   -6.0890 C.ar   21  TRP21      -0.0013
     19  CD1       -7.0550    3.4090   -7.2190 C.ar   21  TRP21       0.0946
     20  NE1       -7.1560    2.4190   -8.1260 N.ar   21  TRP21      -0.2442
     21  CE2       -6.6880    1.2600   -7.6470 C.ar   21  TRP21       0.0810
     22  CZ2       -6.5320   -0.1050   -8.0600 C.ar   21  TRP21       0.0191
     23  CH2       -5.9630   -1.0770   -7.2340 C.ar   21  TRP21       0.0015
     24  CZ3       -5.4330   -0.7150   -5.9030 C.ar   21  TRP21       0.0001
     25  CE3       -5.5290    0.6400   -5.5430 C.ar   21  TRP21       0.0012
     26  CD2       -6.2440    1.5830   -6.3190 C.ar   21  TRP21       0.0152
@<TRIPOS>BOND
     1    20    21   ar
     2    20    19   ar
     3    22    21   ar
     4    22    23   ar
     5    21    26   ar
     6    23    24   ar
     7    19    18   ar
     8    26    18   ar
     9    26    25   ar
    10    18    17    1
    11    24    25   ar
    12     3     2    1
    13     2     1    1
    14     2     4    1
    15    13    15    1
    16    13    14    1
    17    16    15    1
    18     7     6   ar
    19     5     6    1
    20     6     8   ar
    21     9    10    1
    22     9    11    1
    23    11    12    1
@<TRIPOS>MOLECULE
9912992
 55 58 0 0 0
SMALL
GASTEIGER

@<TRIPOS>ATOM
      1 S          -6.5026    2.0072   -0.7375 S.O2    1  LIG11       0.0908
      2 O          -5.2105    1.4721   -4.0045 O.3     1  LIG11      -0.4435
      3 O          -3.3034    3.1420   -5.3849 O.3     1  LIG11      -0.4771
      4 O          -7.3974    0.8688   -0.7766 O.2     1  LIG11      -0.1484
      5 O          -6.8097    3.2147   -1.4824 O.2     1  LIG11      -0.1484
      6 O          -5.5480   -0.2573   -5.9884 O.3     1  LIG11      -0.4914
      7 N          -5.0023    1.4061   -1.2394 N.pl3   1  LIG11      -0.1950
      8 N          -3.4316    3.1168   -1.2923 N.ar    1  LIG11      -0.2073
      9 N          -2.5721    3.9667   -3.3419 N.ar    1  LIG11      -0.1899
     10 N          -6.7554    1.6504    1.9037 N.ar    1  LIG11      -0.2351
     11 N          -0.0469    6.6876    0.0574 N.ar    1  LIG11      -0.2632
     12 C          -4.2147    2.2965   -2.0182 C.ar    1  LIG11       0.1882
     13 C          -4.3101    2.3066   -3.3974 C.ar    1  LIG11       0.2307
     14 C          -6.2095    2.4706    0.9690 C.ar    1  LIG11       0.1969
     15 C          -3.4189    3.1612   -4.0120 C.ar    1  LIG11       0.2638
     16 C          -2.6253    3.9281   -2.0003 C.ar    1  LIG11       0.1659
     17 C          -5.5155    3.6342    1.2558 C.ar    1  LIG11      -0.0160
     18 C          -1.7352    4.8547   -1.2792 C.ar    1  LIG11       0.0222
     19 C          -5.8606    1.9212   -5.1397 C.ar    1  LIG11       0.1702
     20 C          -5.8674    3.1503    3.5909 C.ar    1  LIG11      -0.0322
     21 C          -5.3309    3.9686    2.5938 C.ar    1  LIG11      -0.0541
     22 C          -6.5794    2.0196    3.1913 C.ar    1  LIG11       0.0327
     23 C          -6.0113    1.0159   -6.2021 C.ar    1  LIG11       0.1621
     24 C          -6.3838    3.2185   -5.2361 C.ar    1  LIG11      -0.0157
     25 C          -5.7226    3.4896    5.0418 C.3     1  LIG11      -0.0383
     26 C          -0.5888    5.3832   -1.8944 C.ar    1  LIG11      -0.0329
     27 C          -1.9977    5.2680    0.0332 C.ar    1  LIG11      -0.0329
     28 C          -6.5847    1.4627   -7.3972 C.ar    1  LIG11      -0.0163
     29 C          -6.9497    3.6521   -6.4341 C.ar    1  LIG11      -0.0581
     30 C          -7.0355    2.7813   -7.5165 C.ar    1  LIG11      -0.0581
     31 C           0.2117    6.2757   -1.1984 C.ar    1  LIG11       0.0282
     32 C          -1.1454    6.1748    0.6452 C.ar    1  LIG11       0.0282
     33 C          -3.0357    4.4349   -5.9197 C.3     1  LIG11       0.0805
     34 C          -5.9757   -1.2530   -6.9094 C.3     1  LIG11       0.0790
     35 H          -5.1651    0.4958   -1.6682 H       1  LIG11       0.1754
     36 H          -5.1330    4.2646    0.4618 H       1  LIG11       0.0653
     37 H          -4.7781    4.8680    2.8527 H       1  LIG11       0.0622
     38 H          -7.0456    1.3636    3.9222 H       1  LIG11       0.0833
     39 H          -6.3344    3.9048   -4.3952 H       1  LIG11       0.0655
     40 H          -5.0045    4.3029    5.1910 H       1  LIG11       0.0278
     41 H          -6.6860    3.8058    5.4538 H       1  LIG11       0.0278
     42 H          -5.3580    2.6224    5.6022 H       1  LIG11       0.0278
     43 H          -0.3160    5.1017   -2.9075 H       1  LIG11       0.0640
     44 H          -2.8600    4.9021    0.5754 H       1  LIG11       0.0640
     45 H          -6.6817    0.8128   -8.2605 H       1  LIG11       0.0655
     46 H          -7.3177    4.6720   -6.5240 H       1  LIG11       0.0619
     47 H          -7.4643    3.1230   -8.4559 H       1  LIG11       0.0619
     48 H           1.1065    6.6938   -1.6511 H       1  LIG11       0.0830
     49 H          -1.3346    6.5259    1.6562 H       1  LIG11       0.0830
     50 H          -3.1801    4.3843   -7.0029 H       1  LIG11       0.0660
     51 H          -3.7333    5.1841   -5.5265 H       1  LIG11       0.0660
     52 H          -1.9996    4.7335   -5.7304 H       1  LIG11       0.0660
     53 H          -5.6934   -2.2291   -6.5031 H       1  LIG11       0.0660
     54 H          -7.0644   -1.2496   -7.0339 H       1  LIG11       0.0660
     55 H          -5.4683   -1.1319   -7.8717 H       1  LIG11       0.0660
@<TRIPOS>BOND
     1     1     4    2
     2     1     5    2
     3     1     7    1
     4     1    14    1
     5     2    13    1
     6     2    19    1
     7     3    15    1
     8     3    33    1
     9     6    23    1
    10     6    34    1
    11     7    12    1
    12     8    12   ar
    13     8    16   ar
    14     9    15   ar
    15     9    16   ar
    16    10    14   ar
    17    10    22   ar
    18    11    31   ar
    19    11    32   ar
    20    12    13   ar
    21    13    15   ar
    22    14    17   ar
    23    16    18    1
    24    17    21   ar
    25    18    26   ar
    26    18    27   ar
    27    19    23   ar
    28    19    24   ar
    29    20    21   ar
    30    20    22   ar
    31    20    25    1
    32    23    28   ar
    33    24    29   ar
    34    26    31   ar
    35    27    32   ar
    36    28    30   ar
    37    29    30   ar
    38     7    35    1
    39    17    36    1
    40    21    37    1
    41    22    38    1
    42    24    39    1
    43    25    40    1
    44    25    41    1
    45    25    42    1
    46    26    43    1
    47    27    44    1
    48    28    45    1
    49    29    46    1
    50    30    47    1
    51    31    48    1
    52    32    49    1
    53    33    50    1
    54    33    51    1
    55    33    52    1
    56    34    53    1
    57    34    54    1
    58    34    55    1
@<TRIPOS>MOLECULE
../1EDN/PCA3_17-21.pdb
 47 48 0 0 0
SMALL
GASTEIGER

@<TRIPOS>ATOM
      1  N         -4.2370    0.0490   -1.5930 N.3    17  LEU17      -0.1231
      2  CA        -5.5250   -0.5610   -1.9200 C.3    17  LEU17       0.1693
      3  CB        -5.7360   -1.8160   -1.1010 C.3    17  LEU17       0.0284
      4  CG        -6.9950   -2.5690   -1.5730 C.3    17  LEU17       0.0019
      5  CD1       -6.7530   -3.1800   -3.0080 C.3    17  LEU17       0.0001
      6  CD2       -7.2580   -3.7400   -0.6960 C.3    17  LEU17       0.0001
      7  C         -6.6810    0.4320   -1.9250 C.2    17  LEU17       0.2592
      8  O         -7.3270    0.6200   -2.9560 O.2    17  LEU17      -0.2718
      9  N         -6.9500    1.1080   -0.7900 N.am   18  ASP18      -0.1960
     10  CA        -8.0880    2.0070   -0.5710 C.3    18  ASP18       0.1840
     11  CB        -9.1090    1.3410    0.3760 C.3    18  ASP18       0.1450
     12  CG       -10.1470    2.2990    0.9520 C.2    18  ASP18       0.3671
     13  OD1      -11.0720    2.5310    0.1500 O.co2  18  ASP18      -0.2456
     14  OD2      -10.1960    2.6850    2.1610 O.co2  18  ASP18      -0.2456
     15  C         -7.6280    3.3500    0.0060 C.2    18  ASP18       0.2622
     16  O         -7.9950    4.4650   -0.3580 O.2    18  ASP18      -0.2715
     17  N         -6.8140    3.2050    1.0390 N.am   19  ILE19      -0.1963
     18  CA        -6.1800    4.3790    1.8160 C.3    19  ILE19       0.1727
     19  CB        -5.3140    3.8890    3.0670 C.3    19  ILE19       0.0290
     20  CG2       -4.6600    5.0630    3.8540 C.3    19  ILE19       0.0023
     21  CG1       -6.1440    2.9790    3.9890 C.3    19  ILE19       0.0022
     22  CD1       -5.5170    2.2940    5.2130 C.3    19  ILE19       0.0001
     23  C         -5.2670    5.2520    0.8640 C.2    19  ILE19       0.2616
     24  O         -5.3920    6.4650    0.9090 O.2    19  ILE19      -0.2715
     25  N         -4.4890    4.6060    0.0020 N.am   20  ILE20      -0.1963
     26  CA        -3.9690    5.2910   -1.1850 C.3    20  ILE20       0.1727
     27  CB        -2.4460    5.7340   -1.0120 C.3    20  ILE20       0.0290
     28  CG2       -2.3030    7.0110   -0.1100 C.3    20  ILE20       0.0023
     29  CG1       -1.4300    4.6170   -0.6100 C.3    20  ILE20       0.0022
     30  CD1        0.0800    4.9990   -0.7110 C.3    20  ILE20       0.0001
     31  C         -4.1660    4.3690   -2.4130 C.2    20  ILE20       0.2617
     32  O         -3.9200    3.1710   -2.5010 O.2    20  ILE20      -0.2715
     33  N         -4.6410    5.0460   -3.5090 N.am   21  TRP21      -0.1938
     34  CA        -4.8980    4.4430   -4.8120 C.3    21  TRP21       0.2021
     35  CB        -6.2680    3.7450   -4.8170 C.3    21  TRP21       0.0612
     36  CG        -6.5090    2.9660   -6.0890 C.ar   21  TRP21       0.0007
     37  CD1       -7.0550    3.4090   -7.2190 C.ar   21  TRP21       0.0946
     38  NE1       -7.1560    2.4190   -8.1260 N.ar   21  TRP21      -0.2442
     39  CE2       -6.6880    1.2600   -7.6470 C.ar   21  TRP21       0.0810
     40  CZ2       -6.5320   -0.1050   -8.0600 C.ar   21  TRP21       0.0191
     41  CH2       -5.9630   -1.0770   -7.2340 C.ar   21  TRP21       0.0015
     42  CZ3       -5.4330   -0.7150   -5.9030 C.ar   21  TRP21       0.0001
     43  CE3       -5.5290    0.6400   -5.5430 C.ar   21  TRP21       0.0012
     44  CD2       -6.2440    1.5830   -6.3190 C.ar   21  TRP21       0.0152
     45  C         -4.7460    5.5030   -5.9410 C.2    21  TRP21       0.3845
     46  O         -5.6740    6.3580   -6.0770 O.co2  21  TRP21      -0.2437
     47  OXT       -3.7150    5.4030   -6.6310 O.co2  21  TRP21      -0.2437
@<TRIPOS>BOND
     1    38    39   ar
     2    38    37   ar
     3    40    39   ar
     4    40    41   ar
     5    39    44   ar
     6    41    42   ar
     7    37    36   ar
     8    47    45   ar
     9    44    36   ar
    10    44    43   ar
    11    36    35    1
    12    46    45   ar
    13    45    34    1
    14    42    43   ar
    15    35    34    1
    16    34    33    1
    17    33    31   am
    18     5     4    1
    19     8     7    2
    20    32    31    2
    21    31    26    1
    22     7     2    1
    23     7     9   am
    24     2     1    1
    25     2     3    1
    26     4     3    1
    27     4     6    1
    28    26    27    1
    29    26    25    1
    30    27    29    1
    31    27    28    1
    32     9    10    1
    33    30    29    1
    34    10    15    1
    35    10    11    1
    36    16    15    2
    37    25    23   am
    38    15    17   am
    39    13    12   ar
    40    11    12    1
    41    23    24    2
    42    23    18    1
    43    12    14   ar
    44    17    18    1
    45    18    19    1
    46    19    20    1
    47    19    21    1
    48    21    22    1
