@<TRIPOS>MOLECULE
../1EDN/XRAY_17-21_NOBACKBONE.pdb
 26 23 0 0 0
SMALL
GASTEIGER

@<TRIPOS>ATOM
      1  CB         5.6570  -21.0170   -0.8850 C.3    17  LEU17       0.0000
      2  CG         5.4050  -22.5400   -0.8470 C.3    17  LEU17       0.0000
      3  CD1        6.1110  -23.2140    0.3150 C.3    17  LEU17       0.0000
      4  CD2        3.9240  -22.7940   -0.7690 C.3    17  LEU17       0.0000
      5  CB         3.8720  -17.2370    1.5730 C.3    18  ASP18       0.0476
      6  CG         2.4440  -17.7210    1.8880 C.2    18  ASP18       0.0507
      7  OD1        1.8320  -18.4410    1.0660 O.co2  18  ASP18      -0.5492
      8  OD2        1.9260  -17.3730    2.9700 O.co2  18  ASP18      -0.5492
      9  CB         7.9140  -14.3690   -1.8400 C.3    19  ILE19       0.0000
     10  CG1        8.8760  -14.8240   -0.7490 C.3    19  ILE19       0.0000
     11  CG2        8.2810  -12.9320   -2.2380 C.3    19  ILE19       0.0000
     12  CD1        9.3280  -13.7050    0.1860 C.3    19  ILE19       0.0000
     13  CB         5.8140  -13.8870   -5.9550 C.3    20  ILE20       0.0000
     14  CG1        5.9530  -12.3980   -5.6400 C.3    20  ILE20       0.0000
     15  CG2        5.1640  -14.0490   -7.3150 C.3    20  ILE20       0.0000
     16  CD1        6.8340  -11.6390   -6.6010 C.3    20  ILE20       0.0000
     17  CB         2.6690  -18.5180   -5.3120 C.3    21  TRP21       0.0327
     18  CG         1.5690  -17.9980   -4.3600 C.ar   21  TRP21      -0.0013
     19  CD1        0.7990  -18.7930   -3.5490 C.ar   21  TRP21       0.0946
     20  CD2        1.2480  -16.6350   -3.9890 C.ar   21  TRP21       0.0152
     21  CE2        0.3020  -16.7070   -2.9250 C.ar   21  TRP21       0.0810
     22  CE3        1.6680  -15.3700   -4.4360 C.ar   21  TRP21       0.0012
     23  NE1        0.0520  -18.0350   -2.6840 N.ar   21  TRP21      -0.2442
     24  CZ2       -0.2230  -15.5590   -2.2950 C.ar   21  TRP21       0.0191
     25  CZ3        1.1420  -14.2140   -3.8060 C.ar   21  TRP21       0.0001
     26  CH2        0.2070  -14.3240   -2.7450 C.ar   21  TRP21       0.0015
@<TRIPOS>BOND
     1    15    13    1
     2    16    14    1
     3    13    14    1
     4    17    18    1
     5    22    20   ar
     6    22    25   ar
     7    18    20   ar
     8    18    19   ar
     9    20    21   ar
    10    25    26   ar
    11    19    23   ar
    12    21    23   ar
    13    21    24   ar
    14    26    24   ar
    15    11     9    1
    16     9    10    1
    17     1     2    1
    18     2     4    1
    19     2     3    1
    20    10    12    1
    21     7     6   ar
    22     5     6    1
    23     6     8   ar
@<TRIPOS>MOLECULE
9912992
 55 58 0 0 0
SMALL
GASTEIGER

@<TRIPOS>ATOM
      1 S           0.1196  -14.3897   -2.7802 S.O2    1  LIG11       0.0908
      2 O           2.4116  -16.2150   -0.5000 O.3     1  LIG11      -0.4435
      3 O           4.7716  -17.3241   -1.6532 O.3     1  LIG11      -0.4771
      4 O           0.1148  -13.4480   -3.8768 O.2     1  LIG11      -0.1484
      5 O          -1.0606  -14.5411   -1.9433 O.2     1  LIG11      -0.1484
      6 O           1.4763  -18.4481    0.5238 O.3     1  LIG11      -0.4914
      7 N           1.3641  -13.9884   -1.6887 N.pl3   1  LIG11      -0.1950
      8 N           3.2591  -13.7722   -3.0306 N.ar    1  LIG11      -0.2073
      9 N           4.9396  -15.4592   -3.0654 N.ar    1  LIG11      -0.1899
     10 N           1.3732  -16.0300   -4.4718 N.ar    1  LIG11      -0.2351
     11 N           6.5347  -12.1662   -6.5606 N.ar    1  LIG11      -0.2632
     12 C           2.6580  -14.4547   -2.0513 C.ar    1  LIG11       0.1882
     13 C           3.1503  -15.6117   -1.4797 C.ar    1  LIG11       0.2307
     14 C           0.5353  -16.0286   -3.4018 C.ar    1  LIG11       0.1969
     15 C           4.2943  -16.0982   -2.0710 C.ar    1  LIG11       0.2638
     16 C           4.3962  -14.3056   -3.5045 C.ar    1  LIG11       0.1659
     17 C           0.0918  -17.1667   -2.7470 C.ar    1  LIG11      -0.0160
     18 C           5.1160  -13.5774   -4.5629 C.ar    1  LIG11       0.0222
     19 C           3.0594  -16.7068    0.6137 C.ar    1  LIG11       0.1702
     20 C           1.4385  -18.4411   -4.2974 C.ar    1  LIG11      -0.0322
     21 C           0.5628  -18.3938   -3.2075 C.ar    1  LIG11      -0.0541
     22 C           1.7910  -17.2375   -4.9012 C.ar    1  LIG11       0.0327
     23 C           2.5570  -17.8976    1.1651 C.ar    1  LIG11       0.1621
     24 C           4.1215  -16.0308    1.2282 C.ar    1  LIG11      -0.0157
     25 C           1.9662  -19.7363   -4.8287 C.3     1  LIG11      -0.0383
     26 C           4.7697  -12.2659   -4.9182 C.ar    1  LIG11      -0.0329
     27 C           6.1898  -14.1612   -5.2528 C.ar    1  LIG11      -0.0329
     28 C           3.1813  -18.4385    2.2922 C.ar    1  LIG11      -0.0163
     29 C           4.7315  -16.5783    2.3547 C.ar    1  LIG11      -0.0581
     30 C           4.2687  -17.7835    2.8788 C.ar    1  LIG11      -0.0581
     31 C           5.4963  -11.6125   -5.9015 C.ar    1  LIG11       0.0282
     32 C           6.8543  -13.4314   -6.2254 C.ar    1  LIG11       0.0282
     33 C           5.9494  -17.7488   -2.3272 C.3     1  LIG11       0.0805
     34 C           0.8210  -19.5285    1.1755 C.3     1  LIG11       0.0790
     35 H           1.0691  -14.2650   -0.7534 H       1  LIG11       0.1754
     36 H          -0.5622  -17.1094   -1.8835 H       1  LIG11       0.0653
     37 H           0.2586  -19.3075   -2.7027 H       1  LIG11       0.0622
     38 H           2.4501  -17.2101   -5.7656 H       1  LIG11       0.0833
     39 H           4.4864  -15.0840    0.8410 H       1  LIG11       0.0655
     40 H           1.7943  -20.5563   -4.1237 H       1  LIG11       0.0278
     41 H           1.4745  -19.9848   -5.7745 H       1  LIG11       0.0278
     42 H           3.0468  -19.6684   -4.9942 H       1  LIG11       0.0278
     43 H           3.9437  -11.7521   -4.4338 H       1  LIG11       0.0640
     44 H           6.5092  -15.1768   -5.0390 H       1  LIG11       0.0640
     45 H           2.8510  -19.3712    2.7368 H       1  LIG11       0.0655
     46 H           5.5683  -16.0664    2.8230 H       1  LIG11       0.0619
     47 H           4.7517  -18.2135    3.7536 H       1  LIG11       0.0619
     48 H           5.2529  -10.5942   -6.1899 H       1  LIG11       0.0830
     49 H           7.6872  -13.8605   -6.7747 H       1  LIG11       0.0830
     50 H           6.2450  -18.7135   -1.9042 H       1  LIG11       0.0660
     51 H           5.7609  -17.8970   -3.3960 H       1  LIG11       0.0660
     52 H           6.7746  -17.0471   -2.1658 H       1  LIG11       0.0660
     53 H          -0.0778  -19.7689    0.5998 H       1  LIG11       0.0660
     54 H           1.4568  -20.4195    1.1886 H       1  LIG11       0.0660
     55 H           0.5035  -19.2523    2.1866 H       1  LIG11       0.0660
@<TRIPOS>BOND
     1     1     4    2
     2     1     5    2
     3     1     7    1
     4     1    14    1
     5     2    13    1
     6     2    19    1
     7     3    15    1
     8     3    33    1
     9     6    23    1
    10     6    34    1
    11     7    12    1
    12     8    12   ar
    13     8    16   ar
    14     9    15   ar
    15     9    16   ar
    16    10    14   ar
    17    10    22   ar
    18    11    31   ar
    19    11    32   ar
    20    12    13   ar
    21    13    15   ar
    22    14    17   ar
    23    16    18    1
    24    17    21   ar
    25    18    26   ar
    26    18    27   ar
    27    19    23   ar
    28    19    24   ar
    29    20    21   ar
    30    20    22   ar
    31    20    25    1
    32    23    28   ar
    33    24    29   ar
    34    26    31   ar
    35    27    32   ar
    36    28    30   ar
    37    29    30   ar
    38     7    35    1
    39    17    36    1
    40    21    37    1
    41    22    38    1
    42    24    39    1
    43    25    40    1
    44    25    41    1
    45    25    42    1
    46    26    43    1
    47    27    44    1
    48    28    45    1
    49    29    46    1
    50    30    47    1
    51    31    48    1
    52    32    49    1
    53    33    50    1
    54    33    51    1
    55    33    52    1
    56    34    53    1
    57    34    54    1
    58    34    55    1
@<TRIPOS>MOLECULE
../1EDN/XRAY_17-21.pdb
 47 48 0 0 0
SMALL
GASTEIGER

@<TRIPOS>ATOM
      1  N          6.4500  -19.7300   -2.8460 N.3    17  LEU17      -0.1231
      2  CA         5.2640  -20.1680   -2.1160 C.3    17  LEU17       0.1693
      3  C          4.7010  -18.8060   -1.6720 C.2    17  LEU17       0.2592
      4  O          4.3760  -17.9800   -2.5270 O.2    17  LEU17      -0.2718
      5  CB         5.6570  -21.0170   -0.8850 C.3    17  LEU17       0.0284
      6  CG         5.4050  -22.5400   -0.8470 C.3    17  LEU17       0.0019
      7  CD1        6.1110  -23.2140    0.3150 C.3    17  LEU17       0.0001
      8  CD2        3.9240  -22.7940   -0.7690 C.3    17  LEU17       0.0001
      9  N          4.7270  -18.4910   -0.3800 N.am   18  ASP18      -0.1962
     10  CA         4.1720  -17.2010    0.0630 C.3    18  ASP18       0.1783
     11  C          4.7750  -15.8130   -0.3500 C.2    18  ASP18       0.2620
     12  O          4.1570  -14.7710   -0.0750 O.2    18  ASP18      -0.2715
     13  CB         3.8720  -17.2370    1.5730 C.3    18  ASP18       0.0728
     14  CG         2.4440  -17.7210    1.8880 C.2    18  ASP18       0.0526
     15  OD1        1.8320  -18.4410    1.0660 O.co2  18  ASP18      -0.5491
     16  OD2        1.9260  -17.3730    2.9700 O.co2  18  ASP18      -0.5491
     17  N          5.9570  -15.7420   -0.9630 N.am   19  ILE19      -0.1963
     18  CA         6.4450  -14.4030   -1.3510 C.3    19  ILE19       0.1727
     19  C          5.5760  -13.9960   -2.5290 C.2    19  ILE19       0.2616
     20  O          4.8370  -13.0080   -2.4770 O.2    19  ILE19      -0.2715
     21  CB         7.9140  -14.3690   -1.8400 C.3    19  ILE19       0.0290
     22  CG1        8.8760  -14.8240   -0.7490 C.3    19  ILE19       0.0022
     23  CG2        8.2810  -12.9320   -2.2380 C.3    19  ILE19       0.0023
     24  CD1        9.3280  -13.7050    0.1860 C.3    19  ILE19       0.0001
     25  N          5.7170  -14.7750   -3.5990 N.am   20  ILE20      -0.1963
     26  CA         4.9770  -14.6140   -4.8450 C.3    20  ILE20       0.1727
     27  C          4.7560  -16.0550   -5.2510 C.2    20  ILE20       0.2615
     28  O          5.5820  -16.9240   -4.9410 O.2    20  ILE20      -0.2715
     29  CB         5.8140  -13.8870   -5.9550 C.3    20  ILE20       0.0290
     30  CG1        5.9530  -12.3980   -5.6400 C.3    20  ILE20       0.0022
     31  CG2        5.1640  -14.0490   -7.3150 C.3    20  ILE20       0.0023
     32  CD1        6.8340  -11.6390   -6.6010 C.3    20  ILE20       0.0001
     33  N          3.6520  -16.3070   -5.9350 N.am   21  TRP21      -0.1988
     34  CA         3.3300  -17.6370   -6.4010 C.3    21  TRP21       0.1456
     35  C          2.5650  -17.6270   -7.7180 C.2    21  TRP21       0.1166
     36  O          1.8980  -18.6320   -8.0750 O.co2  21  TRP21      -0.3065
     37  CB         2.6690  -18.5180   -5.3120 C.3    21  TRP21       0.0562
     38  CG         1.5690  -17.9980   -4.3600 C.ar   21  TRP21       0.0005
     39  CD1        0.7990  -18.7930   -3.5490 C.ar   21  TRP21       0.0946
     40  CD2        1.2480  -16.6350   -3.9890 C.ar   21  TRP21       0.0152
     41  CE2        0.3020  -16.7070   -2.9250 C.ar   21  TRP21       0.0810
     42  CE3        1.6680  -15.3700   -4.4360 C.ar   21  TRP21       0.0012
     43  NE1        0.0520  -18.0350   -2.6840 N.ar   21  TRP21      -0.2442
     44  CZ2       -0.2230  -15.5590   -2.2950 C.ar   21  TRP21       0.0191
     45  CZ3        1.1420  -14.2140   -3.8060 C.ar   21  TRP21       0.0001
     46  CH2        0.2070  -14.3240   -2.7450 C.ar   21  TRP21       0.0015
     47  OXT        2.7400  -16.6140   -8.4280 O.co2  21  TRP21      -0.8460
@<TRIPOS>BOND
     1    47    35   ar
     2    36    35   ar
     3    35    34    1
     4    31    29    1
     5    32    30    1
     6    34    33    1
     7    34    37    1
     8    29    30    1
     9    29    26    1
    10    33    27   am
    11    37    38    1
    12    27    28    2
    13    27    26    1
    14    26    25    1
    15    42    40   ar
    16    42    45   ar
    17    38    40   ar
    18    38    39   ar
    19    40    41   ar
    20    45    46   ar
    21    25    19   am
    22    39    43   ar
    23    41    43   ar
    24    41    44   ar
    25     1     2    1
    26    46    44   ar
    27    19    20    2
    28    19    18    1
    29     4     3    2
    30    23    21    1
    31     2     3    1
    32     2     5    1
    33    21    18    1
    34    21    22    1
    35     3     9   am
    36    18    17    1
    37    17    11   am
    38     5     6    1
    39     6     8    1
    40     6     7    1
    41    22    24    1
    42     9    10    1
    43    11    12    2
    44    11    10    1
    45    10    13    1
    46    15    14   ar
    47    13    14    1
    48    14    16   ar
