@<TRIPOS>MOLECULE
../1EDN/XRAY_17-21_NOBACKBONE.pdb
 26 23 0 0 0
SMALL
GASTEIGER

@<TRIPOS>ATOM
      1  CB         5.6570  -21.0170   -0.8850 C.3    17  LEU17       0.0000
      2  CG         5.4050  -22.5400   -0.8470 C.3    17  LEU17       0.0000
      3  CD1        6.1110  -23.2140    0.3150 C.3    17  LEU17       0.0000
      4  CD2        3.9240  -22.7940   -0.7690 C.3    17  LEU17       0.0000
      5  CB         3.8720  -17.2370    1.5730 C.3    18  ASP18       0.0476
      6  CG         2.4440  -17.7210    1.8880 C.2    18  ASP18       0.0507
      7  OD1        1.8320  -18.4410    1.0660 O.co2  18  ASP18      -0.5492
      8  OD2        1.9260  -17.3730    2.9700 O.co2  18  ASP18      -0.5492
      9  CB         7.9140  -14.3690   -1.8400 C.3    19  ILE19       0.0000
     10  CG1        8.8760  -14.8240   -0.7490 C.3    19  ILE19       0.0000
     11  CG2        8.2810  -12.9320   -2.2380 C.3    19  ILE19       0.0000
     12  CD1        9.3280  -13.7050    0.1860 C.3    19  ILE19       0.0000
     13  CB         5.8140  -13.8870   -5.9550 C.3    20  ILE20       0.0000
     14  CG1        5.9530  -12.3980   -5.6400 C.3    20  ILE20       0.0000
     15  CG2        5.1640  -14.0490   -7.3150 C.3    20  ILE20       0.0000
     16  CD1        6.8340  -11.6390   -6.6010 C.3    20  ILE20       0.0000
     17  CB         2.6690  -18.5180   -5.3120 C.3    21  TRP21       0.0327
     18  CG         1.5690  -17.9980   -4.3600 C.ar   21  TRP21      -0.0013
     19  CD1        0.7990  -18.7930   -3.5490 C.ar   21  TRP21       0.0946
     20  CD2        1.2480  -16.6350   -3.9890 C.ar   21  TRP21       0.0152
     21  CE2        0.3020  -16.7070   -2.9250 C.ar   21  TRP21       0.0810
     22  CE3        1.6680  -15.3700   -4.4360 C.ar   21  TRP21       0.0012
     23  NE1        0.0520  -18.0350   -2.6840 N.ar   21  TRP21      -0.2442
     24  CZ2       -0.2230  -15.5590   -2.2950 C.ar   21  TRP21       0.0191
     25  CZ3        1.1420  -14.2140   -3.8060 C.ar   21  TRP21       0.0001
     26  CH2        0.2070  -14.3240   -2.7450 C.ar   21  TRP21       0.0015
@<TRIPOS>BOND
     1    15    13    1
     2    16    14    1
     3    13    14    1
     4    17    18    1
     5    22    20   ar
     6    22    25   ar
     7    18    20   ar
     8    18    19   ar
     9    20    21   ar
    10    25    26   ar
    11    19    23   ar
    12    21    23   ar
    13    21    24   ar
    14    26    24   ar
    15    11     9    1
    16     9    10    1
    17     1     2    1
    18     2     4    1
    19     2     3    1
    20    10    12    1
    21     7     6   ar
    22     5     6    1
    23     6     8   ar
@<TRIPOS>MOLECULE
HTS1204-03362316-01
 87 90 0 0 0
SMALL
USER_CHARGES

@<TRIPOS>ATOM
      1 C1          2.0773  -16.3861   -3.9152 C.ar    1  UNK11      -0.0199
      2 N1          0.3436  -16.2133   -2.5264 N.ar    1  UNK11      -0.3494
      3 C2          7.7756  -14.4321   -3.4866 C.2     1  UNK11       0.3028
      4 C3          1.4353  -15.5564   -3.0183 C.ar    1  UNK11       0.0086
      5 C4          5.0408  -17.1432   -2.7242 C.2     1  UNK11       0.2342
      6 C5          1.2525  -17.5469   -4.0683 C.ar    1  UNK11       0.0031
      7 C6          6.4015  -16.1066   -5.7229 C.2     1  UNK11       0.2340
      8 C7          0.1838  -17.4190   -3.1734 C.ar    1  UNK11       0.0491
      9 N2          6.5116  -14.2627   -3.9997 N.am    1  UNK11      -0.2879
     10 N3          7.8932  -13.9831   -2.1789 N.am    1  UNK11      -0.2856
     11 N4          5.6407  -17.0886   -5.1599 N.am    1  UNK11      -0.3022
     12 N5          4.0930  -17.4862   -1.7911 N.am    1  UNK11      -0.3054
     13 C8          4.5252  -17.1069   -4.1883 C.3     1  UNK11       0.1034
     14 C9          6.1884  -14.6106   -5.3778 C.3     1  UNK11       0.1011
     15 C10         4.3614  -17.6799   -0.3442 C.3     1  UNK11       0.0680
     16 C11         3.4182  -16.0930   -4.5082 C.3     1  UNK11       0.0013
     17 C12         3.6006  -16.6297    0.5277 C.2     1  UNK11       0.0623
     18 C13         3.7796  -19.0204    0.1439 C.3     1  UNK11       0.0133
     19 O1          8.6940  -14.9505   -4.1079 O.2     1  UNK11      -0.2526
     20 O2          7.1875  -16.4712   -6.6042 O.2     1  UNK11      -0.2738
     21 O3          6.2311  -17.0199   -2.4496 O.2     1  UNK11      -0.2738
     22 N6          4.9123  -21.0997    0.7703 N.ar    1  UNK11      -0.2598
     23 O4          2.6269  -16.0631   -0.0609 O.co2   1  UNK11      -0.5479
     24 C14         6.8358  -13.6622   -6.4096 C.3     1  UNK11      -0.0236
     25 C15         4.5693  -20.2571   -0.2390 C.ar    1  UNK11       0.0434
     26 O5          4.0272  -16.4579    1.7019 O.co2   1  UNK11      -0.5479
     27 C16        -0.4564  -15.7369   -1.4203 C.3     1  UNK11       0.0119
     28 C17         8.9017  -14.6179   -1.3348 C.3     1  UNK11       0.0161
     29 C18         7.2012  -12.7965   -1.6904 C.3     1  UNK11       0.0161
     30 C19        -0.7865  -18.4208   -3.0156 C.ar    1  UNK11      -0.0376
     31 C20         1.3420  -18.7246   -4.8410 C.ar    1  UNK11      -0.0523
     32 C21         6.1660  -12.2734   -6.5673 C.3     1  UNK11      -0.0446
     33 C22         5.5868  -22.2257    0.4526 C.ar    1  UNK11       0.0279
     34 C23         4.8643  -20.5611   -1.5665 C.ar    1  UNK11      -0.0403
     35 C24         6.3403  -11.3764   -5.3446 C.3     1  UNK11      -0.0626
     36 C25         4.6827  -12.3605   -6.9423 C.3     1  UNK11      -0.0626
     37 C26         8.9717  -14.1264    0.1136 C.3     1  UNK11      -0.0371
     38 C27         6.1072  -13.0978   -0.6767 C.3     1  UNK11      -0.0371
     39 C28         0.3804  -19.7306   -4.6891 C.ar    1  UNK11      -0.0611
     40 C29        -0.6673  -19.5789   -3.7870 C.ar    1  UNK11      -0.0598
     41 C30         5.9393  -22.5782   -0.8373 C.ar    1  UNK11      -0.0436
     42 C31         5.5682  -21.7258   -1.8660 C.ar    1  UNK11      -0.0586
     43 C32         7.7075  -14.3105    0.9589 C.3     1  UNK11      -0.0516
     44 C33         6.3680  -14.2941    0.2301 C.3     1  UNK11      -0.0516
     45 H           1.7394  -14.6056   -2.5962 H       1  UNK11       0.0812
     46 H           5.8160  -14.4477   -3.2903 H       1  UNK11       0.1510
     47 H           6.0252  -17.9970   -5.3886 H       1  UNK11       0.1495
     48 H           3.1376  -17.1645   -1.9262 H       1  UNK11       0.1494
     49 H           4.1125  -18.1130   -4.3400 H       1  UNK11       0.0598
     50 H           5.1163  -14.4578   -5.4711 H       1  UNK11       0.0595
     51 H           5.4376  -17.6137   -0.1525 H       1  UNK11       0.0564
     52 H           3.2898  -16.0122   -5.5953 H       1  UNK11       0.0337
     53 H           3.7202  -15.1061   -4.1424 H       1  UNK11       0.0337
     54 H           2.7572  -19.1508   -0.2383 H       1  UNK11       0.0350
     55 H           3.6937  -19.0191    1.2388 H       1  UNK11       0.0350
     56 H           6.7984  -14.1361   -7.3994 H       1  UNK11       0.0290
     57 H           7.9004  -13.5219   -6.1875 H       1  UNK11       0.0290
     58 H          -0.0610  -14.7824   -1.0633 H       1  UNK11       0.0456
     59 H          -0.4180  -16.4775   -0.6182 H       1  UNK11       0.0456
     60 H          -1.4815  -15.6001   -1.7745 H       1  UNK11       0.0456
     61 H           9.8767  -14.4540   -1.8092 H       1  UNK11       0.0465
     62 H           8.7199  -15.6997   -1.3567 H       1  UNK11       0.0465
     63 H           6.7662  -12.2445   -2.5289 H       1  UNK11       0.0465
     64 H           7.9474  -12.1133   -1.2707 H       1  UNK11       0.0465
     65 H          -1.5943  -18.3128   -2.2992 H       1  UNK11       0.0638
     66 H           2.1590  -18.8644   -5.5421 H       1  UNK11       0.0624
     67 H           6.6798  -11.7796   -7.4033 H       1  UNK11       0.0296
     68 H           5.8428  -22.8590    1.2963 H       1  UNK11       0.0829
     69 H           4.5527  -19.9074   -2.3702 H       1  UNK11       0.0635
     70 H           5.7288  -11.7169   -4.5046 H       1  UNK11       0.0232
     71 H           6.0277  -10.3516   -5.5757 H       1  UNK11       0.0232
     72 H           7.3870  -11.3411   -5.0270 H       1  UNK11       0.0232
     73 H           4.0626  -12.6781   -6.0973 H       1  UNK11       0.0232
     74 H           4.5243  -13.0636   -7.7666 H       1  UNK11       0.0232
     75 H           4.3107  -11.3811   -7.2604 H       1  UNK11       0.0232
     76 H           9.2575  -13.0682    0.1287 H       1  UNK11       0.0280
     77 H           9.7950  -14.6478    0.6184 H       1  UNK11       0.0280
     78 H           5.1708  -13.2884   -1.2165 H       1  UNK11       0.0280
     79 H           5.9292  -12.1996   -0.0726 H       1  UNK11       0.0280
     80 H           0.4619  -20.6437   -5.2720 H       1  UNK11       0.0618
     81 H          -1.3973  -20.3751   -3.6676 H       1  UNK11       0.0618
     82 H           6.4859  -23.4917   -1.0343 H       1  UNK11       0.0633
     83 H           5.8214  -21.9587   -2.8958 H       1  UNK11       0.0619
     84 H           7.7006  -13.5422    1.7428 H       1  UNK11       0.0266
     85 H           7.7811  -15.2706    1.4867 H       1  UNK11       0.0266
     86 H           6.2713  -15.2142   -0.3560 H       1  UNK11       0.0266
     87 H           5.5684  -14.3307    0.9784 H       1  UNK11       0.0266
@<TRIPOS>BOND
     1     2     4   ar
     2     3     9   am
     3     1     4   ar
     4     5    13    1
     5     1     6   ar
     6     7    11   am
     7     6     8   ar
     8     9    14    1
     9     3    10   am
    10    11    13    1
    11     5    12   am
    12    13    16    1
    13     7    14    1
    14    12    15    1
    15     1    16    1
    16    15    17    1
    17    15    18    1
    18     3    19    2
    19     7    20    2
    20     5    21    2
    21    22    25   ar
    22    17    23   ar
    23    14    24    1
    24    18    25    1
    25    17    26   ar
    26     2    27    1
    27    10    28    1
    28    10    29    1
    29     8    30   ar
    30     6    31   ar
    31    24    32    1
    32    22    33   ar
    33    25    34   ar
    34    32    35    1
    35    32    36    1
    36    28    37    1
    37    29    38    1
    38    31    39   ar
    39    39    40   ar
    40    41    42   ar
    41    34    42   ar
    42    37    43    1
    43    38    44    1
    44     2     8   ar
    45    30    40   ar
    46    33    41   ar
    47    43    44    1
    48     4    45    1
    49     9    46    1
    50    11    47    1
    51    12    48    1
    52    13    49    1
    53    14    50    1
    54    15    51    1
    55    16    52    1
    56    16    53    1
    57    18    54    1
    58    18    55    1
    59    24    56    1
    60    24    57    1
    61    27    58    1
    62    27    59    1
    63    27    60    1
    64    28    61    1
    65    28    62    1
    66    29    63    1
    67    29    64    1
    68    30    65    1
    69    31    66    1
    70    32    67    1
    71    33    68    1
    72    34    69    1
    73    35    70    1
    74    35    71    1
    75    35    72    1
    76    36    73    1
    77    36    74    1
    78    36    75    1
    79    37    76    1
    80    37    77    1
    81    38    78    1
    82    38    79    1
    83    39    80    1
    84    40    81    1
    85    41    82    1
    86    42    83    1
    87    43    84    1
    88    43    85    1
    89    44    86    1
    90    44    87    1
@<TRIPOS>MOLECULE
../1EDN/XRAY_17-21.pdb
 47 48 0 0 0
SMALL
GASTEIGER

@<TRIPOS>ATOM
      1  N          6.4500  -19.7300   -2.8460 N.3    17  LEU17      -0.1231
      2  CA         5.2640  -20.1680   -2.1160 C.3    17  LEU17       0.1693
      3  C          4.7010  -18.8060   -1.6720 C.2    17  LEU17       0.2592
      4  O          4.3760  -17.9800   -2.5270 O.2    17  LEU17      -0.2718
      5  CB         5.6570  -21.0170   -0.8850 C.3    17  LEU17       0.0284
      6  CG         5.4050  -22.5400   -0.8470 C.3    17  LEU17       0.0019
      7  CD1        6.1110  -23.2140    0.3150 C.3    17  LEU17       0.0001
      8  CD2        3.9240  -22.7940   -0.7690 C.3    17  LEU17       0.0001
      9  N          4.7270  -18.4910   -0.3800 N.am   18  ASP18      -0.1962
     10  CA         4.1720  -17.2010    0.0630 C.3    18  ASP18       0.1783
     11  C          4.7750  -15.8130   -0.3500 C.2    18  ASP18       0.2620
     12  O          4.1570  -14.7710   -0.0750 O.2    18  ASP18      -0.2715
     13  CB         3.8720  -17.2370    1.5730 C.3    18  ASP18       0.0728
     14  CG         2.4440  -17.7210    1.8880 C.2    18  ASP18       0.0526
     15  OD1        1.8320  -18.4410    1.0660 O.co2  18  ASP18      -0.5491
     16  OD2        1.9260  -17.3730    2.9700 O.co2  18  ASP18      -0.5491
     17  N          5.9570  -15.7420   -0.9630 N.am   19  ILE19      -0.1963
     18  CA         6.4450  -14.4030   -1.3510 C.3    19  ILE19       0.1727
     19  C          5.5760  -13.9960   -2.5290 C.2    19  ILE19       0.2616
     20  O          4.8370  -13.0080   -2.4770 O.2    19  ILE19      -0.2715
     21  CB         7.9140  -14.3690   -1.8400 C.3    19  ILE19       0.0290
     22  CG1        8.8760  -14.8240   -0.7490 C.3    19  ILE19       0.0022
     23  CG2        8.2810  -12.9320   -2.2380 C.3    19  ILE19       0.0023
     24  CD1        9.3280  -13.7050    0.1860 C.3    19  ILE19       0.0001
     25  N          5.7170  -14.7750   -3.5990 N.am   20  ILE20      -0.1963
     26  CA         4.9770  -14.6140   -4.8450 C.3    20  ILE20       0.1727
     27  C          4.7560  -16.0550   -5.2510 C.2    20  ILE20       0.2615
     28  O          5.5820  -16.9240   -4.9410 O.2    20  ILE20      -0.2715
     29  CB         5.8140  -13.8870   -5.9550 C.3    20  ILE20       0.0290
     30  CG1        5.9530  -12.3980   -5.6400 C.3    20  ILE20       0.0022
     31  CG2        5.1640  -14.0490   -7.3150 C.3    20  ILE20       0.0023
     32  CD1        6.8340  -11.6390   -6.6010 C.3    20  ILE20       0.0001
     33  N          3.6520  -16.3070   -5.9350 N.am   21  TRP21      -0.1988
     34  CA         3.3300  -17.6370   -6.4010 C.3    21  TRP21       0.1456
     35  C          2.5650  -17.6270   -7.7180 C.2    21  TRP21       0.1166
     36  O          1.8980  -18.6320   -8.0750 O.co2  21  TRP21      -0.3065
     37  CB         2.6690  -18.5180   -5.3120 C.3    21  TRP21       0.0562
     38  CG         1.5690  -17.9980   -4.3600 C.ar   21  TRP21       0.0005
     39  CD1        0.7990  -18.7930   -3.5490 C.ar   21  TRP21       0.0946
     40  CD2        1.2480  -16.6350   -3.9890 C.ar   21  TRP21       0.0152
     41  CE2        0.3020  -16.7070   -2.9250 C.ar   21  TRP21       0.0810
     42  CE3        1.6680  -15.3700   -4.4360 C.ar   21  TRP21       0.0012
     43  NE1        0.0520  -18.0350   -2.6840 N.ar   21  TRP21      -0.2442
     44  CZ2       -0.2230  -15.5590   -2.2950 C.ar   21  TRP21       0.0191
     45  CZ3        1.1420  -14.2140   -3.8060 C.ar   21  TRP21       0.0001
     46  CH2        0.2070  -14.3240   -2.7450 C.ar   21  TRP21       0.0015
     47  OXT        2.7400  -16.6140   -8.4280 O.co2  21  TRP21      -0.8460
@<TRIPOS>BOND
     1    47    35   ar
     2    36    35   ar
     3    35    34    1
     4    31    29    1
     5    32    30    1
     6    34    33    1
     7    34    37    1
     8    29    30    1
     9    29    26    1
    10    33    27   am
    11    37    38    1
    12    27    28    2
    13    27    26    1
    14    26    25    1
    15    42    40   ar
    16    42    45   ar
    17    38    40   ar
    18    38    39   ar
    19    40    41   ar
    20    45    46   ar
    21    25    19   am
    22    39    43   ar
    23    41    43   ar
    24    41    44   ar
    25     1     2    1
    26    46    44   ar
    27    19    20    2
    28    19    18    1
    29     4     3    2
    30    23    21    1
    31     2     3    1
    32     2     5    1
    33    21    18    1
    34    21    22    1
    35     3     9   am
    36    18    17    1
    37    17    11   am
    38     5     6    1
    39     6     8    1
    40     6     7    1
    41    22    24    1
    42     9    10    1
    43    11    12    2
    44    11    10    1
    45    10    13    1
    46    15    14   ar
    47    13    14    1
    48    14    16   ar
