@<TRIPOS>MOLECULE
../1EDN/XRAY_17-21_NOBACKBONE.pdb
 26 23 0 0 0
SMALL
GASTEIGER

@<TRIPOS>ATOM
      1  CB         5.6570  -21.0170   -0.8850 C.3    17  LEU17       0.0000
      2  CG         5.4050  -22.5400   -0.8470 C.3    17  LEU17       0.0000
      3  CD1        6.1110  -23.2140    0.3150 C.3    17  LEU17       0.0000
      4  CD2        3.9240  -22.7940   -0.7690 C.3    17  LEU17       0.0000
      5  CB         3.8720  -17.2370    1.5730 C.3    18  ASP18       0.0476
      6  CG         2.4440  -17.7210    1.8880 C.2    18  ASP18       0.0507
      7  OD1        1.8320  -18.4410    1.0660 O.co2  18  ASP18      -0.5492
      8  OD2        1.9260  -17.3730    2.9700 O.co2  18  ASP18      -0.5492
      9  CB         7.9140  -14.3690   -1.8400 C.3    19  ILE19       0.0000
     10  CG1        8.8760  -14.8240   -0.7490 C.3    19  ILE19       0.0000
     11  CG2        8.2810  -12.9320   -2.2380 C.3    19  ILE19       0.0000
     12  CD1        9.3280  -13.7050    0.1860 C.3    19  ILE19       0.0000
     13  CB         5.8140  -13.8870   -5.9550 C.3    20  ILE20       0.0000
     14  CG1        5.9530  -12.3980   -5.6400 C.3    20  ILE20       0.0000
     15  CG2        5.1640  -14.0490   -7.3150 C.3    20  ILE20       0.0000
     16  CD1        6.8340  -11.6390   -6.6010 C.3    20  ILE20       0.0000
     17  CB         2.6690  -18.5180   -5.3120 C.3    21  TRP21       0.0327
     18  CG         1.5690  -17.9980   -4.3600 C.ar   21  TRP21      -0.0013
     19  CD1        0.7990  -18.7930   -3.5490 C.ar   21  TRP21       0.0946
     20  CD2        1.2480  -16.6350   -3.9890 C.ar   21  TRP21       0.0152
     21  CE2        0.3020  -16.7070   -2.9250 C.ar   21  TRP21       0.0810
     22  CE3        1.6680  -15.3700   -4.4360 C.ar   21  TRP21       0.0012
     23  NE1        0.0520  -18.0350   -2.6840 N.ar   21  TRP21      -0.2442
     24  CZ2       -0.2230  -15.5590   -2.2950 C.ar   21  TRP21       0.0191
     25  CZ3        1.1420  -14.2140   -3.8060 C.ar   21  TRP21       0.0001
     26  CH2        0.2070  -14.3240   -2.7450 C.ar   21  TRP21       0.0015
@<TRIPOS>BOND
     1    15    13    1
     2    16    14    1
     3    13    14    1
     4    17    18    1
     5    22    20   ar
     6    22    25   ar
     7    18    20   ar
     8    18    19   ar
     9    20    21   ar
    10    25    26   ar
    11    19    23   ar
    12    21    23   ar
    13    21    24   ar
    14    26    24   ar
    15    11     9    1
    16     9    10    1
    17     1     2    1
    18     2     4    1
    19     2     3    1
    20    10    12    1
    21     7     6   ar
    22     5     6    1
    23     6     8   ar
@<TRIPOS>MOLECULE
23693553
 46 48 0 0 0
SMALL
GASTEIGER

@<TRIPOS>ATOM
      1 O           5.3104  -17.7792   -0.3124 O.2     1  LIG11      -0.2526
      2 O           7.7033  -15.5151   -4.3609 O.2     1  LIG11      -0.2731
      3 O           4.2887  -17.4412   -2.9205 O.2     1  LIG11      -0.2689
      4 O           6.3852  -16.4867   -8.0366 O.co2   1  LIG11      -0.5479
      5 OXT         6.8190  -17.8266   -6.2328 O.co2   1  LIG11      -0.5479
      6 O           0.0303  -20.1338   -1.5750 O.3     1  LIG11      -0.4515
      7 O          -0.7661  -18.1497   -0.6959 O.2     1  LIG11      -0.2227
      8 N           6.1753  -19.7912   -0.9653 N.am    1  LIG11      -0.2801
      9 N           6.8730  -17.7834   -1.9805 N.am    1  LIG11      -0.2879
     10 N           5.5326  -16.2752   -4.4658 N.am    1  LIG11      -0.2273
     11 N           4.3658  -19.7202   -4.3587 N.3     1  LIG11       0.2276
     12 N           0.4940  -18.1802   -2.6336 N.ar    1  LIG11      -0.2526
     13 C           7.2166  -20.6022   -1.6307 C.3     1  LIG11       0.0249
     14 C           5.2050  -20.4283   -0.0404 C.3     1  LIG11       0.0249
     15 C           6.8919  -22.1010   -1.7366 C.3     1  LIG11      -0.0344
     16 C           4.9210  -21.9155   -0.3031 C.3     1  LIG11      -0.0344
     17 C           5.4009  -22.3703   -1.6671 C.3     1  LIG11      -0.0497
     18 CA          6.9204  -16.3287   -2.2675 C.3     1  LIG11       0.1019
     19 C           6.5128  -13.8549   -1.3250 C.3     1  LIG11      -0.0356
     20 C           6.1662  -15.3782   -1.3118 C.3     1  LIG11      -0.0210
     21 C           6.0982  -18.3916   -1.0271 C.2     1  LIG11       0.3033
     22 C           8.5924  -20.4198   -0.9817 C.3     1  LIG11      -0.0464
     23 C           5.5586  -20.2160    1.4383 C.3     1  LIG11      -0.0464
     24 C           6.7276  -16.0104   -3.7803 C.2     1  LIG11       0.2429
     25 C           8.0278  -13.5992   -1.2632 C.3     1  LIG11      -0.0600
     26 C           5.8693  -13.2197   -0.0711 C.3     1  LIG11      -0.0600
     27 C           5.9309  -13.1428   -2.5524 C.3     1  LIG11      -0.0600
     28 CA          5.5079  -15.8684   -5.9043 C.3     1  LIG11       0.0730
     29 C           5.3871  -14.3459   -6.1003 C.3     1  LIG11      -0.0286
     30 C           4.7068  -17.3096   -4.0754 C.2     1  LIG11       0.2708
     31 CA          4.2207  -18.3967   -5.0820 C.3     1  LIG11       0.0579
     32 C           6.6301  -13.5965   -6.5763 C.3     1  LIG11      -0.0513
     33 C           2.7675  -18.2246   -5.5630 C.3     1  LIG11       0.0261
     34 C           6.4081  -16.7653   -6.8107 C.2     1  LIG11       0.0626
     35 C           1.7963  -17.9391   -4.4684 C.ar    1  LIG11      -0.0158
     36 C           6.4692  -12.0728   -6.4927 C.3     1  LIG11      -0.0558
     37 C           1.3585  -16.6476   -4.0538 C.ar    1  LIG11       0.0038
     38 C           1.2012  -18.8523   -3.6282 C.ar    1  LIG11       0.0202
     39 C           0.5686  -16.8131   -2.9113 C.ar    1  LIG11       0.0598
     40 C           5.3060  -11.5274   -7.3079 C.3     1  LIG11      -0.0653
     41 C           1.6084  -15.3431   -4.5356 C.ar    1  LIG11      -0.0523
     42 C           0.0306  -15.7000   -2.2364 C.ar    1  LIG11      -0.0371
     43 C           1.0737  -14.2404   -3.8679 C.ar    1  LIG11      -0.0611
     44 C          -0.1547  -18.7894   -1.5364 C.2     1  LIG11       0.4196
     45 C           0.2973  -14.4199   -2.7310 C.ar    1  LIG11      -0.0598
     46 C          -0.5645  -20.8429   -0.4873 C.3     1  LIG11       0.0835
@<TRIPOS>BOND
     1     1    21    2
     2     2    24    2
     3     3    30    2
     4     4    34   ar
     5     5    34   ar
     6     6    44    1
     7     6    46    1
     8     7    44    2
     9     8    13    1
    10     8    14    1
    11     9    21   am
    12    10    24   am
    13    10    30   am
    14    12    39   ar
    15    12    38   ar
    16    12    44   am
    17    13    15    1
    18    13    22    1
    19    14    16    1
    20    14    23    1
    21    15    17    1
    22    16    17    1
    23    18     9    1
    24    18    24    1
    25    18    20    1
    26    19    20    1
    27    19    27    1
    28    19    26    1
    29    19    25    1
    30    21     8   am
    31    28    34    1
    32    28    29    1
    33    28    10    1
    34    29    32    1
    35    31    33    1
    36    31    11    1
    37    31    30    1
    38    32    36    1
    39    33    35    1
    40    35    38   ar
    41    35    37   ar
    42    36    40    1
    43    37    39   ar
    44    37    41   ar
    45    39    42   ar
    46    41    43   ar
    47    42    45   ar
    48    43    45   ar
@<TRIPOS>MOLECULE
../1EDN/XRAY_17-21.pdb
 47 48 0 0 0
SMALL
GASTEIGER

@<TRIPOS>ATOM
      1  N          6.4500  -19.7300   -2.8460 N.3    17  LEU17      -0.1231
      2  CA         5.2640  -20.1680   -2.1160 C.3    17  LEU17       0.1693
      3  C          4.7010  -18.8060   -1.6720 C.2    17  LEU17       0.2592
      4  O          4.3760  -17.9800   -2.5270 O.2    17  LEU17      -0.2718
      5  CB         5.6570  -21.0170   -0.8850 C.3    17  LEU17       0.0284
      6  CG         5.4050  -22.5400   -0.8470 C.3    17  LEU17       0.0019
      7  CD1        6.1110  -23.2140    0.3150 C.3    17  LEU17       0.0001
      8  CD2        3.9240  -22.7940   -0.7690 C.3    17  LEU17       0.0001
      9  N          4.7270  -18.4910   -0.3800 N.am   18  ASP18      -0.1962
     10  CA         4.1720  -17.2010    0.0630 C.3    18  ASP18       0.1783
     11  C          4.7750  -15.8130   -0.3500 C.2    18  ASP18       0.2620
     12  O          4.1570  -14.7710   -0.0750 O.2    18  ASP18      -0.2715
     13  CB         3.8720  -17.2370    1.5730 C.3    18  ASP18       0.0728
     14  CG         2.4440  -17.7210    1.8880 C.2    18  ASP18       0.0526
     15  OD1        1.8320  -18.4410    1.0660 O.co2  18  ASP18      -0.5491
     16  OD2        1.9260  -17.3730    2.9700 O.co2  18  ASP18      -0.5491
     17  N          5.9570  -15.7420   -0.9630 N.am   19  ILE19      -0.1963
     18  CA         6.4450  -14.4030   -1.3510 C.3    19  ILE19       0.1727
     19  C          5.5760  -13.9960   -2.5290 C.2    19  ILE19       0.2616
     20  O          4.8370  -13.0080   -2.4770 O.2    19  ILE19      -0.2715
     21  CB         7.9140  -14.3690   -1.8400 C.3    19  ILE19       0.0290
     22  CG1        8.8760  -14.8240   -0.7490 C.3    19  ILE19       0.0022
     23  CG2        8.2810  -12.9320   -2.2380 C.3    19  ILE19       0.0023
     24  CD1        9.3280  -13.7050    0.1860 C.3    19  ILE19       0.0001
     25  N          5.7170  -14.7750   -3.5990 N.am   20  ILE20      -0.1963
     26  CA         4.9770  -14.6140   -4.8450 C.3    20  ILE20       0.1727
     27  C          4.7560  -16.0550   -5.2510 C.2    20  ILE20       0.2615
     28  O          5.5820  -16.9240   -4.9410 O.2    20  ILE20      -0.2715
     29  CB         5.8140  -13.8870   -5.9550 C.3    20  ILE20       0.0290
     30  CG1        5.9530  -12.3980   -5.6400 C.3    20  ILE20       0.0022
     31  CG2        5.1640  -14.0490   -7.3150 C.3    20  ILE20       0.0023
     32  CD1        6.8340  -11.6390   -6.6010 C.3    20  ILE20       0.0001
     33  N          3.6520  -16.3070   -5.9350 N.am   21  TRP21      -0.1988
     34  CA         3.3300  -17.6370   -6.4010 C.3    21  TRP21       0.1456
     35  C          2.5650  -17.6270   -7.7180 C.2    21  TRP21       0.1166
     36  O          1.8980  -18.6320   -8.0750 O.co2  21  TRP21      -0.3065
     37  CB         2.6690  -18.5180   -5.3120 C.3    21  TRP21       0.0562
     38  CG         1.5690  -17.9980   -4.3600 C.ar   21  TRP21       0.0005
     39  CD1        0.7990  -18.7930   -3.5490 C.ar   21  TRP21       0.0946
     40  CD2        1.2480  -16.6350   -3.9890 C.ar   21  TRP21       0.0152
     41  CE2        0.3020  -16.7070   -2.9250 C.ar   21  TRP21       0.0810
     42  CE3        1.6680  -15.3700   -4.4360 C.ar   21  TRP21       0.0012
     43  NE1        0.0520  -18.0350   -2.6840 N.ar   21  TRP21      -0.2442
     44  CZ2       -0.2230  -15.5590   -2.2950 C.ar   21  TRP21       0.0191
     45  CZ3        1.1420  -14.2140   -3.8060 C.ar   21  TRP21       0.0001
     46  CH2        0.2070  -14.3240   -2.7450 C.ar   21  TRP21       0.0015
     47  OXT        2.7400  -16.6140   -8.4280 O.co2  21  TRP21      -0.8460
@<TRIPOS>BOND
     1    47    35   ar
     2    36    35   ar
     3    35    34    1
     4    31    29    1
     5    32    30    1
     6    34    33    1
     7    34    37    1
     8    29    30    1
     9    29    26    1
    10    33    27   am
    11    37    38    1
    12    27    28    2
    13    27    26    1
    14    26    25    1
    15    42    40   ar
    16    42    45   ar
    17    38    40   ar
    18    38    39   ar
    19    40    41   ar
    20    45    46   ar
    21    25    19   am
    22    39    43   ar
    23    41    43   ar
    24    41    44   ar
    25     1     2    1
    26    46    44   ar
    27    19    20    2
    28    19    18    1
    29     4     3    2
    30    23    21    1
    31     2     3    1
    32     2     5    1
    33    21    18    1
    34    21    22    1
    35     3     9   am
    36    18    17    1
    37    17    11   am
    38     5     6    1
    39     6     8    1
    40     6     7    1
    41    22    24    1
    42     9    10    1
    43    11    12    2
    44    11    10    1
    45    10    13    1
    46    15    14   ar
    47    13    14    1
    48    14    16   ar
