@<TRIPOS>MOLECULE
../1EDN/XRAY_17-21_NOBACKBONE.pdb
 26 23 0 0 0
SMALL
GASTEIGER

@<TRIPOS>ATOM
      1  CB         5.6570  -21.0170   -0.8850 C.3    17  LEU17       0.0000
      2  CG         5.4050  -22.5400   -0.8470 C.3    17  LEU17       0.0000
      3  CD1        6.1110  -23.2140    0.3150 C.3    17  LEU17       0.0000
      4  CD2        3.9240  -22.7940   -0.7690 C.3    17  LEU17       0.0000
      5  CB         3.8720  -17.2370    1.5730 C.3    18  ASP18       0.0476
      6  CG         2.4440  -17.7210    1.8880 C.2    18  ASP18       0.0507
      7  OD1        1.8320  -18.4410    1.0660 O.co2  18  ASP18      -0.5492
      8  OD2        1.9260  -17.3730    2.9700 O.co2  18  ASP18      -0.5492
      9  CB         7.9140  -14.3690   -1.8400 C.3    19  ILE19       0.0000
     10  CG1        8.8760  -14.8240   -0.7490 C.3    19  ILE19       0.0000
     11  CG2        8.2810  -12.9320   -2.2380 C.3    19  ILE19       0.0000
     12  CD1        9.3280  -13.7050    0.1860 C.3    19  ILE19       0.0000
     13  CB         5.8140  -13.8870   -5.9550 C.3    20  ILE20       0.0000
     14  CG1        5.9530  -12.3980   -5.6400 C.3    20  ILE20       0.0000
     15  CG2        5.1640  -14.0490   -7.3150 C.3    20  ILE20       0.0000
     16  CD1        6.8340  -11.6390   -6.6010 C.3    20  ILE20       0.0000
     17  CB         2.6690  -18.5180   -5.3120 C.3    21  TRP21       0.0327
     18  CG         1.5690  -17.9980   -4.3600 C.ar   21  TRP21      -0.0013
     19  CD1        0.7990  -18.7930   -3.5490 C.ar   21  TRP21       0.0946
     20  CD2        1.2480  -16.6350   -3.9890 C.ar   21  TRP21       0.0152
     21  CE2        0.3020  -16.7070   -2.9250 C.ar   21  TRP21       0.0810
     22  CE3        1.6680  -15.3700   -4.4360 C.ar   21  TRP21       0.0012
     23  NE1        0.0520  -18.0350   -2.6840 N.ar   21  TRP21      -0.2442
     24  CZ2       -0.2230  -15.5590   -2.2950 C.ar   21  TRP21       0.0191
     25  CZ3        1.1420  -14.2140   -3.8060 C.ar   21  TRP21       0.0001
     26  CH2        0.2070  -14.3240   -2.7450 C.ar   21  TRP21       0.0015
@<TRIPOS>BOND
     1    15    13    1
     2    16    14    1
     3    13    14    1
     4    17    18    1
     5    22    20   ar
     6    22    25   ar
     7    18    20   ar
     8    18    19   ar
     9    20    21   ar
    10    25    26   ar
    11    19    23   ar
    12    21    23   ar
    13    21    24   ar
    14    26    24   ar
    15    11     9    1
    16     9    10    1
    17     1     2    1
    18     2     4    1
    19     2     3    1
    20    10    12    1
    21     7     6   ar
    22     5     6    1
    23     6     8   ar
@<TRIPOS>MOLECULE
11672244
 53 58 0 0 0
SMALL
GASTEIGER

@<TRIPOS>ATOM
      1 O           5.3425  -13.5271   -1.5637 O.3     1  LIG11      -0.4607
      2 O           2.8951  -11.1857   -7.4385 O.2     1  LIG11      -0.2968
      3 O          11.1810  -15.7547   -1.8338 O.co2   1  LIG11      -0.5492
      4 O          12.0614  -14.0693   -0.5945 O.co2   1  LIG11      -0.5492
      5 O           5.2504  -15.3185   -0.1017 O.2     1  LIG11      -0.2456
      6 O          -0.0166  -15.5426   -5.5720 O.3     1  LIG11      -0.5067
      7 O           2.2091  -18.2734   -0.0535 O.2     1  LIG11      -0.2705
      8 O           3.1618  -23.1832    0.5445 O.co2   1  LIG11      -0.5452
      9 O           2.8493  -22.5370    2.7147 O.co2   1  LIG11      -0.5452
     10 N           2.3354  -19.2575   -2.1591 N.am    1  LIG11      -0.2815
     11 C           7.7935  -12.7414   -3.4153 C.3     1  LIG11      -0.0160
     12 C           6.7725  -13.5843   -4.2655 C.3     1  LIG11      -0.0256
     13 C           7.8647  -13.3355   -1.8858 C.3     1  LIG11       0.0318
     14 C           6.2840  -12.9731   -5.6605 C.3     1  LIG11      -0.0243
     15 C           5.8595  -11.4806   -5.4007 C.3     1  LIG11      -0.0235
     16 C           7.3749  -11.2495   -3.4052 C.3     1  LIG11      -0.0461
     17 C           8.0604  -14.8677   -1.9199 C.2     1  LIG11      -0.0596
     18 C           8.5741  -15.5131   -0.6135 C.3     1  LIG11      -0.0080
     19 C           7.0240  -10.6847   -4.7811 C.3     1  LIG11      -0.0483
     20 C           9.0571  -12.6480   -1.1301 C.3     1  LIG11      -0.0392
     21 C           7.2087  -15.0639   -4.3108 C.3     1  LIG11      -0.0306
     22 C           9.8403  -14.8164   -0.0577 C.3     1  LIG11       0.0167
     23 C           5.1216  -10.7433   -6.5681 C.3     1  LIG11       0.0267
     24 C           4.9985  -13.7364   -6.1040 C.3     1  LIG11      -0.0404
     25 C           9.4920  -13.3265    0.1691 C.3     1  LIG11      -0.0408
     26 C           9.2108  -12.8194   -4.0726 C.3     1  LIG11      -0.0584
     27 C           7.7554  -15.5901   -3.0174 C.2     1  LIG11      -0.0835
     28 C           6.5784  -13.0466   -1.0055 C.3     1  LIG11       0.1025
     29 C           7.3345  -13.1249   -6.7860 C.3     1  LIG11      -0.0590
     30 C           8.6680  -17.0581   -0.5932 C.3     1  LIG11      -0.0405
     31 C          10.2441  -15.4257    1.3085 C.3     1  LIG11      -0.0412
     32 C           4.2741  -13.1125   -7.2900 C.3     1  LIG11       0.0069
     33 C           9.0641  -17.6401    0.7840 C.3     1  LIG11      -0.0343
     34 C           3.9855  -11.6439   -7.0845 C.2     1  LIG11       0.1392
     35 C          10.3456  -16.9517    1.2905 C.3     1  LIG11      -0.0470
     36 C           6.0095  -10.3409   -7.7537 C.3     1  LIG11      -0.0528
     37 C           4.4727   -9.4413   -6.0273 C.3     1  LIG11      -0.0528
     38 C          11.1482  -14.8893   -0.9163 C.2     1  LIG11       0.0485
     39 C           9.3329  -19.1493    0.6294 C.3     1  LIG11      -0.0598
     40 C           7.9155  -17.4755    1.8016 C.3     1  LIG11      -0.0598
     41 C           4.8455  -14.6892   -1.0604 C.2     1  LIG11       0.3320
     42 C           3.6864  -15.0607   -1.9035 C.2     1  LIG11       0.0231
     43 C           3.3095  -16.3432   -2.0506 C.2     1  LIG11      -0.0460
     44 C           2.1950  -16.8456   -2.8998 C.ar    1  LIG11      -0.0001
     45 C           1.8246  -18.2130   -2.9663 C.ar    1  LIG11       0.0411
     46 C           1.5515  -15.9562   -3.7926 C.ar    1  LIG11      -0.0113
     47 C           0.8955  -18.6430   -3.9367 C.ar    1  LIG11      -0.0364
     48 C           0.6027  -16.4027   -4.7126 C.ar    1  LIG11       0.1175
     49 C           0.2753  -17.7416   -4.7962 C.ar    1  LIG11      -0.0184
     50 C           2.4639  -19.2217   -0.7801 C.2     1  LIG11       0.2411
     51 C           2.8217  -20.5713   -0.2586 C.2     1  LIG11       0.0021
     52 C           2.6678  -20.9167    1.0275 C.2     1  LIG11      -0.0344
     53 C           2.9366  -22.3506    1.4692 C.2     1  LIG11       0.0647
@<TRIPOS>BOND
     1     1    41    1
     2     1    28    1
     3     2    34    2
     4     3    38   ar
     5     4    38   ar
     6     5    41    2
     7     6    48    1
     8     7    50    2
     9     8    53   ar
    10     9    53   ar
    11    10    45    1
    12    10    50   am
    13    11    16    1
    14    11    12    1
    15    11    26    1
    16    11    13    1
    17    12    14    1
    18    13    20    1
    19    13    17    1
    20    13    28    1
    21    14    15    1
    22    14    24    1
    23    14    29    1
    24    15    19    1
    25    15    23    1
    26    16    19    1
    27    17    18    1
    28    17    27    2
    29    18    30    1
    30    18    22    1
    31    20    25    1
    32    21    27    1
    33    21    12    1
    34    22    31    1
    35    22    25    1
    36    22    38    1
    37    23    34    1
    38    23    37    1
    39    23    36    1
    40    24    32    1
    41    30    33    1
    42    31    35    1
    43    32    34    1
    44    33    35    1
    45    33    40    1
    46    33    39    1
    47    41    42    1
    48    42    43    2
    49    43    44    1
    50    44    46   ar
    51    44    45   ar
    52    45    47   ar
    53    46    48   ar
    54    47    49   ar
    55    48    49   ar
    56    50    51    1
    57    51    52    2
    58    52    53    1
@<TRIPOS>MOLECULE
../1EDN/XRAY_17-21.pdb
 47 48 0 0 0
SMALL
GASTEIGER

@<TRIPOS>ATOM
      1  N          6.4500  -19.7300   -2.8460 N.3    17  LEU17      -0.1231
      2  CA         5.2640  -20.1680   -2.1160 C.3    17  LEU17       0.1693
      3  C          4.7010  -18.8060   -1.6720 C.2    17  LEU17       0.2592
      4  O          4.3760  -17.9800   -2.5270 O.2    17  LEU17      -0.2718
      5  CB         5.6570  -21.0170   -0.8850 C.3    17  LEU17       0.0284
      6  CG         5.4050  -22.5400   -0.8470 C.3    17  LEU17       0.0019
      7  CD1        6.1110  -23.2140    0.3150 C.3    17  LEU17       0.0001
      8  CD2        3.9240  -22.7940   -0.7690 C.3    17  LEU17       0.0001
      9  N          4.7270  -18.4910   -0.3800 N.am   18  ASP18      -0.1962
     10  CA         4.1720  -17.2010    0.0630 C.3    18  ASP18       0.1783
     11  C          4.7750  -15.8130   -0.3500 C.2    18  ASP18       0.2620
     12  O          4.1570  -14.7710   -0.0750 O.2    18  ASP18      -0.2715
     13  CB         3.8720  -17.2370    1.5730 C.3    18  ASP18       0.0728
     14  CG         2.4440  -17.7210    1.8880 C.2    18  ASP18       0.0526
     15  OD1        1.8320  -18.4410    1.0660 O.co2  18  ASP18      -0.5491
     16  OD2        1.9260  -17.3730    2.9700 O.co2  18  ASP18      -0.5491
     17  N          5.9570  -15.7420   -0.9630 N.am   19  ILE19      -0.1963
     18  CA         6.4450  -14.4030   -1.3510 C.3    19  ILE19       0.1727
     19  C          5.5760  -13.9960   -2.5290 C.2    19  ILE19       0.2616
     20  O          4.8370  -13.0080   -2.4770 O.2    19  ILE19      -0.2715
     21  CB         7.9140  -14.3690   -1.8400 C.3    19  ILE19       0.0290
     22  CG1        8.8760  -14.8240   -0.7490 C.3    19  ILE19       0.0022
     23  CG2        8.2810  -12.9320   -2.2380 C.3    19  ILE19       0.0023
     24  CD1        9.3280  -13.7050    0.1860 C.3    19  ILE19       0.0001
     25  N          5.7170  -14.7750   -3.5990 N.am   20  ILE20      -0.1963
     26  CA         4.9770  -14.6140   -4.8450 C.3    20  ILE20       0.1727
     27  C          4.7560  -16.0550   -5.2510 C.2    20  ILE20       0.2615
     28  O          5.5820  -16.9240   -4.9410 O.2    20  ILE20      -0.2715
     29  CB         5.8140  -13.8870   -5.9550 C.3    20  ILE20       0.0290
     30  CG1        5.9530  -12.3980   -5.6400 C.3    20  ILE20       0.0022
     31  CG2        5.1640  -14.0490   -7.3150 C.3    20  ILE20       0.0023
     32  CD1        6.8340  -11.6390   -6.6010 C.3    20  ILE20       0.0001
     33  N          3.6520  -16.3070   -5.9350 N.am   21  TRP21      -0.1988
     34  CA         3.3300  -17.6370   -6.4010 C.3    21  TRP21       0.1456
     35  C          2.5650  -17.6270   -7.7180 C.2    21  TRP21       0.1166
     36  O          1.8980  -18.6320   -8.0750 O.co2  21  TRP21      -0.3065
     37  CB         2.6690  -18.5180   -5.3120 C.3    21  TRP21       0.0562
     38  CG         1.5690  -17.9980   -4.3600 C.ar   21  TRP21       0.0005
     39  CD1        0.7990  -18.7930   -3.5490 C.ar   21  TRP21       0.0946
     40  CD2        1.2480  -16.6350   -3.9890 C.ar   21  TRP21       0.0152
     41  CE2        0.3020  -16.7070   -2.9250 C.ar   21  TRP21       0.0810
     42  CE3        1.6680  -15.3700   -4.4360 C.ar   21  TRP21       0.0012
     43  NE1        0.0520  -18.0350   -2.6840 N.ar   21  TRP21      -0.2442
     44  CZ2       -0.2230  -15.5590   -2.2950 C.ar   21  TRP21       0.0191
     45  CZ3        1.1420  -14.2140   -3.8060 C.ar   21  TRP21       0.0001
     46  CH2        0.2070  -14.3240   -2.7450 C.ar   21  TRP21       0.0015
     47  OXT        2.7400  -16.6140   -8.4280 O.co2  21  TRP21      -0.8460
@<TRIPOS>BOND
     1    47    35   ar
     2    36    35   ar
     3    35    34    1
     4    31    29    1
     5    32    30    1
     6    34    33    1
     7    34    37    1
     8    29    30    1
     9    29    26    1
    10    33    27   am
    11    37    38    1
    12    27    28    2
    13    27    26    1
    14    26    25    1
    15    42    40   ar
    16    42    45   ar
    17    38    40   ar
    18    38    39   ar
    19    40    41   ar
    20    45    46   ar
    21    25    19   am
    22    39    43   ar
    23    41    43   ar
    24    41    44   ar
    25     1     2    1
    26    46    44   ar
    27    19    20    2
    28    19    18    1
    29     4     3    2
    30    23    21    1
    31     2     3    1
    32     2     5    1
    33    21    18    1
    34    21    22    1
    35     3     9   am
    36    18    17    1
    37    17    11   am
    38     5     6    1
    39     6     8    1
    40     6     7    1
    41    22    24    1
    42     9    10    1
    43    11    12    2
    44    11    10    1
    45    10    13    1
    46    15    14   ar
    47    13    14    1
    48    14    16   ar
