@<TRIPOS>MOLECULE
../1EDN/XRAY_17-21_NOBACKBONE.pdb
 26 23 0 0 0
SMALL
GASTEIGER

@<TRIPOS>ATOM
      1  CB         5.6570  -21.0170   -0.8850 C.3    17  LEU17       0.0000
      2  CG         5.4050  -22.5400   -0.8470 C.3    17  LEU17       0.0000
      3  CD1        6.1110  -23.2140    0.3150 C.3    17  LEU17       0.0000
      4  CD2        3.9240  -22.7940   -0.7690 C.3    17  LEU17       0.0000
      5  CB         3.8720  -17.2370    1.5730 C.3    18  ASP18       0.0476
      6  CG         2.4440  -17.7210    1.8880 C.2    18  ASP18       0.0507
      7  OD1        1.8320  -18.4410    1.0660 O.co2  18  ASP18      -0.5492
      8  OD2        1.9260  -17.3730    2.9700 O.co2  18  ASP18      -0.5492
      9  CB         7.9140  -14.3690   -1.8400 C.3    19  ILE19       0.0000
     10  CG1        8.8760  -14.8240   -0.7490 C.3    19  ILE19       0.0000
     11  CG2        8.2810  -12.9320   -2.2380 C.3    19  ILE19       0.0000
     12  CD1        9.3280  -13.7050    0.1860 C.3    19  ILE19       0.0000
     13  CB         5.8140  -13.8870   -5.9550 C.3    20  ILE20       0.0000
     14  CG1        5.9530  -12.3980   -5.6400 C.3    20  ILE20       0.0000
     15  CG2        5.1640  -14.0490   -7.3150 C.3    20  ILE20       0.0000
     16  CD1        6.8340  -11.6390   -6.6010 C.3    20  ILE20       0.0000
     17  CB         2.6690  -18.5180   -5.3120 C.3    21  TRP21       0.0327
     18  CG         1.5690  -17.9980   -4.3600 C.ar   21  TRP21      -0.0013
     19  CD1        0.7990  -18.7930   -3.5490 C.ar   21  TRP21       0.0946
     20  CD2        1.2480  -16.6350   -3.9890 C.ar   21  TRP21       0.0152
     21  CE2        0.3020  -16.7070   -2.9250 C.ar   21  TRP21       0.0810
     22  CE3        1.6680  -15.3700   -4.4360 C.ar   21  TRP21       0.0012
     23  NE1        0.0520  -18.0350   -2.6840 N.ar   21  TRP21      -0.2442
     24  CZ2       -0.2230  -15.5590   -2.2950 C.ar   21  TRP21       0.0191
     25  CZ3        1.1420  -14.2140   -3.8060 C.ar   21  TRP21       0.0001
     26  CH2        0.2070  -14.3240   -2.7450 C.ar   21  TRP21       0.0015
@<TRIPOS>BOND
     1    15    13    1
     2    16    14    1
     3    13    14    1
     4    17    18    1
     5    22    20   ar
     6    22    25   ar
     7    18    20   ar
     8    18    19   ar
     9    20    21   ar
    10    25    26   ar
    11    19    23   ar
    12    21    23   ar
    13    21    24   ar
    14    26    24   ar
    15    11     9    1
    16     9    10    1
    17     1     2    1
    18     2     4    1
    19     2     3    1
    20    10    12    1
    21     7     6   ar
    22     5     6    1
    23     6     8   ar
@<TRIPOS>MOLECULE
104865
 68 71 0 0 0
SMALL
GASTEIGER

@<TRIPOS>ATOM
      1 S           0.7030  -13.7503   -3.8798 S.O2    1  LIG11       0.0736
      2 O          -0.6957  -13.3719   -3.8331 O.2     1  LIG11      -0.1499
      3 O           1.5266  -13.4012   -5.0164 O.2     1  LIG11      -0.1499
      4 O           3.9520  -12.5178   -3.6074 O.3     1  LIG11      -0.4435
      5 O           6.1950  -13.8508   -2.4057 O.3     1  LIG11      -0.4715
      6 O           5.3332  -10.3541   -4.3544 O.3     1  LIG11      -0.4914
      7 O           9.1160  -13.7069   -1.8073 O.3     1  LIG11      -0.3917
      8 N           1.4070  -13.1543   -2.4716 N.pl3   1  LIG11      -0.1963
      9 N           2.4129  -14.6162   -1.0733 N.ar    1  LIG11      -0.2044
     10 N           4.7488  -15.0455   -1.0345 N.ar    1  LIG11      -0.1866
     11 N           4.3519  -16.8075    1.1003 N.ar    1  LIG11      -0.2331
     12 N           2.0065  -16.7570    0.6494 N.ar    1  LIG11      -0.2331
     13 C           1.0370  -19.8280   -3.1132 C.3     1  LIG11      -0.0127
     14 C           0.9524  -18.3084   -3.3426 C.ar    1  LIG11      -0.0419
     15 C          -0.2460  -20.4933   -3.6519 C.3     1  LIG11      -0.0560
     16 C           1.1759  -20.1310   -1.6046 C.3     1  LIG11      -0.0560
     17 C           2.2395  -20.4982   -3.8167 C.3     1  LIG11      -0.0560
     18 C          -0.0199  -17.5425   -2.6644 C.ar    1  LIG11      -0.0562
     19 C           1.8072  -17.6331   -4.2308 C.ar    1  LIG11      -0.0562
     20 C           0.7765  -15.5165   -3.6919 C.ar    1  LIG11       0.1086
     21 C          -0.1124  -16.1584   -2.8343 C.ar    1  LIG11      -0.0348
     22 C           1.7167  -16.2511   -4.4134 C.ar    1  LIG11      -0.0348
     23 C           2.6323  -13.7377   -2.0618 C.ar    1  LIG11       0.1883
     24 C           3.8608  -13.4678   -2.6294 C.ar    1  LIG11       0.2307
     25 C           4.9047  -14.1527   -2.0346 C.ar    1  LIG11       0.2642
     26 C           3.4914  -15.2715   -0.5991 C.ar    1  LIG11       0.2027
     27 C           4.8855  -12.6679   -4.6118 C.ar    1  LIG11       0.1702
     28 C           3.2738  -16.3226    0.4379 C.ar    1  LIG11       0.1978
     29 C           7.1113  -14.9515   -2.3409 C.3     1  LIG11       0.1143
     30 C           5.5971  -11.5291   -5.0118 C.ar    1  LIG11       0.1621
     31 C           5.0845  -13.8836   -5.2779 C.ar    1  LIG11      -0.0157
     32 C           6.5763  -11.6401   -6.0040 C.ar    1  LIG11      -0.0163
     33 C           8.1850  -14.6625   -1.2974 C.3     1  LIG11       0.0783
     34 C           6.0497  -13.9836   -6.2801 C.ar    1  LIG11      -0.0581
     35 C           6.8036  -12.8664   -6.6330 C.ar    1  LIG11      -0.0581
     36 C           4.1210  -17.7683    2.0140 C.ar    1  LIG11       0.0315
     37 C           1.8407  -17.7270    1.5662 C.ar    1  LIG11       0.0315
     38 C           2.8734  -18.2743    2.2870 C.ar    1  LIG11      -0.0254
     39 C           5.3039   -9.2109   -5.2035 C.3     1  LIG11       0.0790
     40 H           9.6634  -13.4146   -1.0596 H       1  LIG11       0.2095
     41 H           0.7248  -13.1576   -1.7163 H       1  LIG11       0.1754
     42 H          -1.1430  -20.1377   -3.1329 H       1  LIG11       0.0238
     43 H          -0.2092  -21.5817   -3.5277 H       1  LIG11       0.0238
     44 H          -0.3802  -20.2841   -4.7200 H       1  LIG11       0.0238
     45 H           0.3031  -19.8025   -1.0304 H       1  LIG11       0.0238
     46 H           2.0564  -19.6321   -1.1828 H       1  LIG11       0.0238
     47 H           1.2851  -21.2072   -1.4263 H       1  LIG11       0.0238
     48 H           2.1818  -20.3947   -4.9063 H       1  LIG11       0.0238
     49 H           2.2753  -21.5728   -3.6008 H       1  LIG11       0.0238
     50 H           3.1909  -20.0679   -3.4823 H       1  LIG11       0.0238
     51 H          -0.7228  -18.0185   -1.9841 H       1  LIG11       0.0621
     52 H           2.5625  -18.1628   -4.8049 H       1  LIG11       0.0621
     53 H          -0.8657  -15.5966   -2.2879 H       1  LIG11       0.0637
     54 H           2.3831  -15.7616   -5.1182 H       1  LIG11       0.0637
     55 H           7.5707  -15.0321   -3.3326 H       1  LIG11       0.0720
     56 H           6.6236  -15.9116   -2.1364 H       1  LIG11       0.0720
     57 H           4.5043  -14.7604   -5.0164 H       1  LIG11       0.0655
     58 H           7.1859  -10.7879   -6.2857 H       1  LIG11       0.0655
     59 H           7.7458  -14.2588   -0.3800 H       1  LIG11       0.0591
     60 H           8.7450  -15.5735   -1.0682 H       1  LIG11       0.0591
     61 H           6.2192  -14.9339   -6.7794 H       1  LIG11       0.0619
     62 H           7.5702  -12.9481   -7.3992 H       1  LIG11       0.0619
     63 H           5.0012  -18.1319    2.5363 H       1  LIG11       0.0831
     64 H           0.8170  -18.0627    1.7060 H       1  LIG11       0.0831
     65 H           2.7150  -19.0513    3.0215 H       1  LIG11       0.0648
     66 H           4.7569   -8.4201   -4.6813 H       1  LIG11       0.0660
     67 H           4.7803   -9.4125   -6.1453 H       1  LIG11       0.0660
     68 H           6.3183   -8.8467   -5.3933 H       1  LIG11       0.0660
@<TRIPOS>BOND
     1     1     2    2
     2     1     3    2
     3     1     8    1
     4     1    20    1
     5     4    24    1
     6     4    27    1
     7     5    25    1
     8     5    29    1
     9     6    30    1
    10     6    39    1
    11     7    33    1
    12     8    23    1
    13     9    23   ar
    14     9    26   ar
    15    10    25   ar
    16    10    26   ar
    17    11    28   ar
    18    11    36   ar
    19    12    28   ar
    20    12    37   ar
    21    13    14    1
    22    13    15    1
    23    13    16    1
    24    13    17    1
    25    14    18   ar
    26    14    19   ar
    27    18    21   ar
    28    19    22   ar
    29    20    21   ar
    30    20    22   ar
    31    23    24   ar
    32    24    25   ar
    33    26    28    1
    34    27    30   ar
    35    27    31   ar
    36    29    33    1
    37    30    32   ar
    38    31    34   ar
    39    32    35   ar
    40    34    35   ar
    41    36    38   ar
    42    37    38   ar
    43     7    40    1
    44     8    41    1
    45    15    42    1
    46    15    43    1
    47    15    44    1
    48    16    45    1
    49    16    46    1
    50    16    47    1
    51    17    48    1
    52    17    49    1
    53    17    50    1
    54    18    51    1
    55    19    52    1
    56    21    53    1
    57    22    54    1
    58    29    55    1
    59    29    56    1
    60    31    57    1
    61    32    58    1
    62    33    59    1
    63    33    60    1
    64    34    61    1
    65    35    62    1
    66    36    63    1
    67    37    64    1
    68    38    65    1
    69    39    66    1
    70    39    67    1
    71    39    68    1
@<TRIPOS>MOLECULE
../1EDN/XRAY_17-21.pdb
 47 48 0 0 0
SMALL
GASTEIGER

@<TRIPOS>ATOM
      1  N          6.4500  -19.7300   -2.8460 N.3    17  LEU17      -0.1231
      2  CA         5.2640  -20.1680   -2.1160 C.3    17  LEU17       0.1693
      3  C          4.7010  -18.8060   -1.6720 C.2    17  LEU17       0.2592
      4  O          4.3760  -17.9800   -2.5270 O.2    17  LEU17      -0.2718
      5  CB         5.6570  -21.0170   -0.8850 C.3    17  LEU17       0.0284
      6  CG         5.4050  -22.5400   -0.8470 C.3    17  LEU17       0.0019
      7  CD1        6.1110  -23.2140    0.3150 C.3    17  LEU17       0.0001
      8  CD2        3.9240  -22.7940   -0.7690 C.3    17  LEU17       0.0001
      9  N          4.7270  -18.4910   -0.3800 N.am   18  ASP18      -0.1962
     10  CA         4.1720  -17.2010    0.0630 C.3    18  ASP18       0.1783
     11  C          4.7750  -15.8130   -0.3500 C.2    18  ASP18       0.2620
     12  O          4.1570  -14.7710   -0.0750 O.2    18  ASP18      -0.2715
     13  CB         3.8720  -17.2370    1.5730 C.3    18  ASP18       0.0728
     14  CG         2.4440  -17.7210    1.8880 C.2    18  ASP18       0.0526
     15  OD1        1.8320  -18.4410    1.0660 O.co2  18  ASP18      -0.5491
     16  OD2        1.9260  -17.3730    2.9700 O.co2  18  ASP18      -0.5491
     17  N          5.9570  -15.7420   -0.9630 N.am   19  ILE19      -0.1963
     18  CA         6.4450  -14.4030   -1.3510 C.3    19  ILE19       0.1727
     19  C          5.5760  -13.9960   -2.5290 C.2    19  ILE19       0.2616
     20  O          4.8370  -13.0080   -2.4770 O.2    19  ILE19      -0.2715
     21  CB         7.9140  -14.3690   -1.8400 C.3    19  ILE19       0.0290
     22  CG1        8.8760  -14.8240   -0.7490 C.3    19  ILE19       0.0022
     23  CG2        8.2810  -12.9320   -2.2380 C.3    19  ILE19       0.0023
     24  CD1        9.3280  -13.7050    0.1860 C.3    19  ILE19       0.0001
     25  N          5.7170  -14.7750   -3.5990 N.am   20  ILE20      -0.1963
     26  CA         4.9770  -14.6140   -4.8450 C.3    20  ILE20       0.1727
     27  C          4.7560  -16.0550   -5.2510 C.2    20  ILE20       0.2615
     28  O          5.5820  -16.9240   -4.9410 O.2    20  ILE20      -0.2715
     29  CB         5.8140  -13.8870   -5.9550 C.3    20  ILE20       0.0290
     30  CG1        5.9530  -12.3980   -5.6400 C.3    20  ILE20       0.0022
     31  CG2        5.1640  -14.0490   -7.3150 C.3    20  ILE20       0.0023
     32  CD1        6.8340  -11.6390   -6.6010 C.3    20  ILE20       0.0001
     33  N          3.6520  -16.3070   -5.9350 N.am   21  TRP21      -0.1988
     34  CA         3.3300  -17.6370   -6.4010 C.3    21  TRP21       0.1456
     35  C          2.5650  -17.6270   -7.7180 C.2    21  TRP21       0.1166
     36  O          1.8980  -18.6320   -8.0750 O.co2  21  TRP21      -0.3065
     37  CB         2.6690  -18.5180   -5.3120 C.3    21  TRP21       0.0562
     38  CG         1.5690  -17.9980   -4.3600 C.ar   21  TRP21       0.0005
     39  CD1        0.7990  -18.7930   -3.5490 C.ar   21  TRP21       0.0946
     40  CD2        1.2480  -16.6350   -3.9890 C.ar   21  TRP21       0.0152
     41  CE2        0.3020  -16.7070   -2.9250 C.ar   21  TRP21       0.0810
     42  CE3        1.6680  -15.3700   -4.4360 C.ar   21  TRP21       0.0012
     43  NE1        0.0520  -18.0350   -2.6840 N.ar   21  TRP21      -0.2442
     44  CZ2       -0.2230  -15.5590   -2.2950 C.ar   21  TRP21       0.0191
     45  CZ3        1.1420  -14.2140   -3.8060 C.ar   21  TRP21       0.0001
     46  CH2        0.2070  -14.3240   -2.7450 C.ar   21  TRP21       0.0015
     47  OXT        2.7400  -16.6140   -8.4280 O.co2  21  TRP21      -0.8460
@<TRIPOS>BOND
     1    47    35   ar
     2    36    35   ar
     3    35    34    1
     4    31    29    1
     5    32    30    1
     6    34    33    1
     7    34    37    1
     8    29    30    1
     9    29    26    1
    10    33    27   am
    11    37    38    1
    12    27    28    2
    13    27    26    1
    14    26    25    1
    15    42    40   ar
    16    42    45   ar
    17    38    40   ar
    18    38    39   ar
    19    40    41   ar
    20    45    46   ar
    21    25    19   am
    22    39    43   ar
    23    41    43   ar
    24    41    44   ar
    25     1     2    1
    26    46    44   ar
    27    19    20    2
    28    19    18    1
    29     4     3    2
    30    23    21    1
    31     2     3    1
    32     2     5    1
    33    21    18    1
    34    21    22    1
    35     3     9   am
    36    18    17    1
    37    17    11   am
    38     5     6    1
    39     6     8    1
    40     6     7    1
    41    22    24    1
    42     9    10    1
    43    11    12    2
    44    11    10    1
    45    10    13    1
    46    15    14   ar
    47    13    14    1
    48    14    16   ar
