@<TRIPOS>MOLECULE
../1EDN/XRAY_17-21_NOBACKBONE.pdb
 26 23 0 0 0
SMALL
GASTEIGER

@<TRIPOS>ATOM
      1  CB         5.6570  -21.0170   -0.8850 C.3    17  LEU17       0.0000
      2  CG         5.4050  -22.5400   -0.8470 C.3    17  LEU17       0.0000
      3  CD1        6.1110  -23.2140    0.3150 C.3    17  LEU17       0.0000
      4  CD2        3.9240  -22.7940   -0.7690 C.3    17  LEU17       0.0000
      5  CB         3.8720  -17.2370    1.5730 C.3    18  ASP18       0.0476
      6  CG         2.4440  -17.7210    1.8880 C.2    18  ASP18       0.0507
      7  OD1        1.8320  -18.4410    1.0660 O.co2  18  ASP18      -0.5492
      8  OD2        1.9260  -17.3730    2.9700 O.co2  18  ASP18      -0.5492
      9  CB         7.9140  -14.3690   -1.8400 C.3    19  ILE19       0.0000
     10  CG1        8.8760  -14.8240   -0.7490 C.3    19  ILE19       0.0000
     11  CG2        8.2810  -12.9320   -2.2380 C.3    19  ILE19       0.0000
     12  CD1        9.3280  -13.7050    0.1860 C.3    19  ILE19       0.0000
     13  CB         5.8140  -13.8870   -5.9550 C.3    20  ILE20       0.0000
     14  CG1        5.9530  -12.3980   -5.6400 C.3    20  ILE20       0.0000
     15  CG2        5.1640  -14.0490   -7.3150 C.3    20  ILE20       0.0000
     16  CD1        6.8340  -11.6390   -6.6010 C.3    20  ILE20       0.0000
     17  CB         2.6690  -18.5180   -5.3120 C.3    21  TRP21       0.0327
     18  CG         1.5690  -17.9980   -4.3600 C.ar   21  TRP21      -0.0013
     19  CD1        0.7990  -18.7930   -3.5490 C.ar   21  TRP21       0.0946
     20  CD2        1.2480  -16.6350   -3.9890 C.ar   21  TRP21       0.0152
     21  CE2        0.3020  -16.7070   -2.9250 C.ar   21  TRP21       0.0810
     22  CE3        1.6680  -15.3700   -4.4360 C.ar   21  TRP21       0.0012
     23  NE1        0.0520  -18.0350   -2.6840 N.ar   21  TRP21      -0.2442
     24  CZ2       -0.2230  -15.5590   -2.2950 C.ar   21  TRP21       0.0191
     25  CZ3        1.1420  -14.2140   -3.8060 C.ar   21  TRP21       0.0001
     26  CH2        0.2070  -14.3240   -2.7450 C.ar   21  TRP21       0.0015
@<TRIPOS>BOND
     1    15    13    1
     2    16    14    1
     3    13    14    1
     4    17    18    1
     5    22    20   ar
     6    22    25   ar
     7    18    20   ar
     8    18    19   ar
     9    20    21   ar
    10    25    26   ar
    11    19    23   ar
    12    21    23   ar
    13    21    24   ar
    14    26    24   ar
    15    11     9    1
    16     9    10    1
    17     1     2    1
    18     2     4    1
    19     2     3    1
    20    10    12    1
    21     7     6   ar
    22     5     6    1
    23     6     8   ar
@<TRIPOS>MOLECULE
9957262
 35 38 0 0 0
SMALL
GASTEIGER

@<TRIPOS>ATOM
      1 S          -2.9203  -17.2796    0.4907 S.O2    1  LIG11       0.0668
      2 O          -4.1729  -15.3214   -2.1377 O.3     1  LIG11      -0.4435
      3 O          -6.3674  -15.9100   -3.8727 O.3     1  LIG11      -0.4771
      4 O          -2.4673  -17.2409    1.8686 O.2     1  LIG11      -0.1505
      5 O          -3.1644  -18.5538   -0.1550 O.2     1  LIG11      -0.1505
      6 O          -3.3735  -12.8164   -3.4251 O.3     1  LIG11      -0.4914
      7 N          -4.3731  -16.4065    0.4992 N.pl3   1  LIG11      -0.1968
      8 N          -6.2348  -17.5406   -0.1288 N.ar    1  LIG11      -0.2044
      9 N          -7.2090  -17.4086   -2.2909 N.ar    1  LIG11      -0.1867
     10 N          -8.7215  -19.6835   -1.6401 N.ar    1  LIG11      -0.2331
     11 N          -8.4286  -19.1125    0.6624 N.ar    1  LIG11      -0.2331
     12 C          -5.2754  -16.7105   -0.5591 C.ar    1  LIG11       0.1883
     13 C          -5.1812  -16.1948   -1.8368 C.ar    1  LIG11       0.2307
     14 C          -6.2455  -16.5389   -2.6494 C.ar    1  LIG11       0.2639
     15 C          -3.6437  -15.2948   -3.4116 C.ar    1  LIG11       0.1702
     16 C          -1.8050  -16.3366   -0.4418 C.2     1  LIG11       0.0729
     17 C          -7.1550  -17.9126   -1.0405 C.ar    1  LIG11       0.2027
     18 C          -3.2637  -14.0667   -3.9743 C.ar    1  LIG11       0.1621
     19 C          -1.1186  -16.9145   -1.4396 C.2     1  LIG11      -0.0353
     20 C          -0.1839  -16.2346   -2.3528 C.ar    1  LIG11      -0.0237
     21 C          -3.3732  -16.4874   -4.1074 C.ar    1  LIG11      -0.0157
     22 C          -8.1560  -18.9451   -0.6538 C.ar    1  LIG11       0.1978
     23 C          -2.6502  -14.0558   -5.2351 C.ar    1  LIG11      -0.0163
     24 C          -2.7820  -16.4568   -5.3713 C.ar    1  LIG11      -0.0581
     25 C          -2.4221  -15.2394   -5.9369 C.ar    1  LIG11      -0.0581
     26 C           0.0553  -14.8543   -2.3322 C.ar    1  LIG11      -0.0546
     27 C           0.4635  -17.0066   -3.3299 C.ar    1  LIG11      -0.0546
     28 C           0.9178  -14.2641   -3.2609 C.ar    1  LIG11      -0.0612
     29 C           1.3237  -16.4169   -4.2594 C.ar    1  LIG11      -0.0612
     30 C           1.5508  -15.0445   -4.2241 C.ar    1  LIG11      -0.0617
     31 C          -7.4557  -16.3769   -4.6629 C.3     1  LIG11       0.0805
     32 C          -4.3625  -12.6156   -2.4266 C.3     1  LIG11       0.0790
     33 C          -9.5853  -20.6417   -1.2601 C.ar    1  LIG11       0.0315
     34 C          -9.3088  -20.0795    0.9791 C.ar    1  LIG11       0.0315
     35 C          -9.9201  -20.8856    0.0495 C.ar    1  LIG11      -0.0254
@<TRIPOS>BOND
     1     1     4    2
     2     1     5    2
     3     1     7    1
     4     1    16    1
     5     2    13    1
     6     2    15    1
     7     3    14    1
     8     3    31    1
     9     6    18    1
    10     6    32    1
    11     7    12    1
    12     8    12   ar
    13     8    17   ar
    14     9    14   ar
    15     9    17   ar
    16    10    22   ar
    17    10    33   ar
    18    11    22   ar
    19    11    34   ar
    20    12    13   ar
    21    13    14   ar
    22    15    18   ar
    23    15    21   ar
    24    16    19    2
    25    17    22    1
    26    18    23   ar
    27    19    20    1
    28    20    26   ar
    29    20    27   ar
    30    21    24   ar
    31    23    25   ar
    32    24    25   ar
    33    26    28   ar
    34    27    29   ar
    35    28    30   ar
    36    29    30   ar
    37    33    35   ar
    38    34    35   ar
@<TRIPOS>MOLECULE
../1EDN/XRAY_17-21.pdb
 47 48 0 0 0
SMALL
GASTEIGER

@<TRIPOS>ATOM
      1  N          6.4500  -19.7300   -2.8460 N.3    17  LEU17      -0.1231
      2  CA         5.2640  -20.1680   -2.1160 C.3    17  LEU17       0.1693
      3  C          4.7010  -18.8060   -1.6720 C.2    17  LEU17       0.2592
      4  O          4.3760  -17.9800   -2.5270 O.2    17  LEU17      -0.2718
      5  CB         5.6570  -21.0170   -0.8850 C.3    17  LEU17       0.0284
      6  CG         5.4050  -22.5400   -0.8470 C.3    17  LEU17       0.0019
      7  CD1        6.1110  -23.2140    0.3150 C.3    17  LEU17       0.0001
      8  CD2        3.9240  -22.7940   -0.7690 C.3    17  LEU17       0.0001
      9  N          4.7270  -18.4910   -0.3800 N.am   18  ASP18      -0.1962
     10  CA         4.1720  -17.2010    0.0630 C.3    18  ASP18       0.1783
     11  C          4.7750  -15.8130   -0.3500 C.2    18  ASP18       0.2620
     12  O          4.1570  -14.7710   -0.0750 O.2    18  ASP18      -0.2715
     13  CB         3.8720  -17.2370    1.5730 C.3    18  ASP18       0.0728
     14  CG         2.4440  -17.7210    1.8880 C.2    18  ASP18       0.0526
     15  OD1        1.8320  -18.4410    1.0660 O.co2  18  ASP18      -0.5491
     16  OD2        1.9260  -17.3730    2.9700 O.co2  18  ASP18      -0.5491
     17  N          5.9570  -15.7420   -0.9630 N.am   19  ILE19      -0.1963
     18  CA         6.4450  -14.4030   -1.3510 C.3    19  ILE19       0.1727
     19  C          5.5760  -13.9960   -2.5290 C.2    19  ILE19       0.2616
     20  O          4.8370  -13.0080   -2.4770 O.2    19  ILE19      -0.2715
     21  CB         7.9140  -14.3690   -1.8400 C.3    19  ILE19       0.0290
     22  CG1        8.8760  -14.8240   -0.7490 C.3    19  ILE19       0.0022
     23  CG2        8.2810  -12.9320   -2.2380 C.3    19  ILE19       0.0023
     24  CD1        9.3280  -13.7050    0.1860 C.3    19  ILE19       0.0001
     25  N          5.7170  -14.7750   -3.5990 N.am   20  ILE20      -0.1963
     26  CA         4.9770  -14.6140   -4.8450 C.3    20  ILE20       0.1727
     27  C          4.7560  -16.0550   -5.2510 C.2    20  ILE20       0.2615
     28  O          5.5820  -16.9240   -4.9410 O.2    20  ILE20      -0.2715
     29  CB         5.8140  -13.8870   -5.9550 C.3    20  ILE20       0.0290
     30  CG1        5.9530  -12.3980   -5.6400 C.3    20  ILE20       0.0022
     31  CG2        5.1640  -14.0490   -7.3150 C.3    20  ILE20       0.0023
     32  CD1        6.8340  -11.6390   -6.6010 C.3    20  ILE20       0.0001
     33  N          3.6520  -16.3070   -5.9350 N.am   21  TRP21      -0.1988
     34  CA         3.3300  -17.6370   -6.4010 C.3    21  TRP21       0.1456
     35  C          2.5650  -17.6270   -7.7180 C.2    21  TRP21       0.1166
     36  O          1.8980  -18.6320   -8.0750 O.co2  21  TRP21      -0.3065
     37  CB         2.6690  -18.5180   -5.3120 C.3    21  TRP21       0.0562
     38  CG         1.5690  -17.9980   -4.3600 C.ar   21  TRP21       0.0005
     39  CD1        0.7990  -18.7930   -3.5490 C.ar   21  TRP21       0.0946
     40  CD2        1.2480  -16.6350   -3.9890 C.ar   21  TRP21       0.0152
     41  CE2        0.3020  -16.7070   -2.9250 C.ar   21  TRP21       0.0810
     42  CE3        1.6680  -15.3700   -4.4360 C.ar   21  TRP21       0.0012
     43  NE1        0.0520  -18.0350   -2.6840 N.ar   21  TRP21      -0.2442
     44  CZ2       -0.2230  -15.5590   -2.2950 C.ar   21  TRP21       0.0191
     45  CZ3        1.1420  -14.2140   -3.8060 C.ar   21  TRP21       0.0001
     46  CH2        0.2070  -14.3240   -2.7450 C.ar   21  TRP21       0.0015
     47  OXT        2.7400  -16.6140   -8.4280 O.co2  21  TRP21      -0.8460
@<TRIPOS>BOND
     1    47    35   ar
     2    36    35   ar
     3    35    34    1
     4    31    29    1
     5    32    30    1
     6    34    33    1
     7    34    37    1
     8    29    30    1
     9    29    26    1
    10    33    27   am
    11    37    38    1
    12    27    28    2
    13    27    26    1
    14    26    25    1
    15    42    40   ar
    16    42    45   ar
    17    38    40   ar
    18    38    39   ar
    19    40    41   ar
    20    45    46   ar
    21    25    19   am
    22    39    43   ar
    23    41    43   ar
    24    41    44   ar
    25     1     2    1
    26    46    44   ar
    27    19    20    2
    28    19    18    1
    29     4     3    2
    30    23    21    1
    31     2     3    1
    32     2     5    1
    33    21    18    1
    34    21    22    1
    35     3     9   am
    36    18    17    1
    37    17    11   am
    38     5     6    1
    39     6     8    1
    40     6     7    1
    41    22    24    1
    42     9    10    1
    43    11    12    2
    44    11    10    1
    45    10    13    1
    46    15    14   ar
    47    13    14    1
    48    14    16   ar
