@<TRIPOS>MOLECULE
../1EDN/XRAY_17-21_NOBACKBONE.pdb
 26 23 0 0 0
SMALL
GASTEIGER

@<TRIPOS>ATOM
      1  CB         5.6570  -21.0170   -0.8850 C.3    17  LEU17       0.0000
      2  CG         5.4050  -22.5400   -0.8470 C.3    17  LEU17       0.0000
      3  CD1        6.1110  -23.2140    0.3150 C.3    17  LEU17       0.0000
      4  CD2        3.9240  -22.7940   -0.7690 C.3    17  LEU17       0.0000
      5  CB         3.8720  -17.2370    1.5730 C.3    18  ASP18       0.0476
      6  CG         2.4440  -17.7210    1.8880 C.2    18  ASP18       0.0507
      7  OD1        1.8320  -18.4410    1.0660 O.co2  18  ASP18      -0.5492
      8  OD2        1.9260  -17.3730    2.9700 O.co2  18  ASP18      -0.5492
      9  CB         7.9140  -14.3690   -1.8400 C.3    19  ILE19       0.0000
     10  CG1        8.8760  -14.8240   -0.7490 C.3    19  ILE19       0.0000
     11  CG2        8.2810  -12.9320   -2.2380 C.3    19  ILE19       0.0000
     12  CD1        9.3280  -13.7050    0.1860 C.3    19  ILE19       0.0000
     13  CB         5.8140  -13.8870   -5.9550 C.3    20  ILE20       0.0000
     14  CG1        5.9530  -12.3980   -5.6400 C.3    20  ILE20       0.0000
     15  CG2        5.1640  -14.0490   -7.3150 C.3    20  ILE20       0.0000
     16  CD1        6.8340  -11.6390   -6.6010 C.3    20  ILE20       0.0000
     17  CB         2.6690  -18.5180   -5.3120 C.3    21  TRP21       0.0327
     18  CG         1.5690  -17.9980   -4.3600 C.ar   21  TRP21      -0.0013
     19  CD1        0.7990  -18.7930   -3.5490 C.ar   21  TRP21       0.0946
     20  CD2        1.2480  -16.6350   -3.9890 C.ar   21  TRP21       0.0152
     21  CE2        0.3020  -16.7070   -2.9250 C.ar   21  TRP21       0.0810
     22  CE3        1.6680  -15.3700   -4.4360 C.ar   21  TRP21       0.0012
     23  NE1        0.0520  -18.0350   -2.6840 N.ar   21  TRP21      -0.2442
     24  CZ2       -0.2230  -15.5590   -2.2950 C.ar   21  TRP21       0.0191
     25  CZ3        1.1420  -14.2140   -3.8060 C.ar   21  TRP21       0.0001
     26  CH2        0.2070  -14.3240   -2.7450 C.ar   21  TRP21       0.0015
@<TRIPOS>BOND
     1    15    13    1
     2    16    14    1
     3    13    14    1
     4    17    18    1
     5    22    20   ar
     6    22    25   ar
     7    18    20   ar
     8    18    19   ar
     9    20    21   ar
    10    25    26   ar
    11    19    23   ar
    12    21    23   ar
    13    21    24   ar
    14    26    24   ar
    15    11     9    1
    16     9    10    1
    17     1     2    1
    18     2     4    1
    19     2     3    1
    20    10    12    1
    21     7     6   ar
    22     5     6    1
    23     6     8   ar
@<TRIPOS>MOLECULE
6918493
 49 51 0 0 0
SMALL
GASTEIGER

@<TRIPOS>ATOM
      1 O           0.8527  -18.0630   -3.4194 O.3     1  LIG11      -0.3632
      2 O           3.5742  -15.4665   -3.8753 O.3     1  LIG11      -0.4495
      3 O           4.9213  -17.7636   -3.4784 O.co2   1  LIG11      -0.5459
      4 O           3.5005  -18.8986   -4.8432 O.co2   1  LIG11      -0.5459
      5 N           5.0336  -13.8850   -4.6530 N.ar    1  LIG11      -0.2002
      6 N           4.1170  -15.4778   -6.1642 N.ar    1  LIG11      -0.2002
      7 C           1.6812  -16.8950   -3.1268 C.3     1  LIG11       0.1609
      8 C           2.8600  -16.7063   -4.1441 C.3     1  LIG11       0.1791
      9 C           2.2215  -17.0935   -1.6776 C.ar    1  LIG11      -0.0075
     10 C           0.6381  -15.7206   -3.1158 C.ar    1  LIG11      -0.0075
     11 C           2.8191  -16.0314   -0.9728 C.ar    1  LIG11      -0.0554
     12 C          -0.4525  -15.7765   -2.2191 C.ar    1  LIG11      -0.0554
     13 C           2.1236  -18.3356   -1.0216 C.ar    1  LIG11      -0.0554
     14 C           0.6880  -14.6256   -3.9955 C.ar    1  LIG11      -0.0554
     15 C           3.8450  -17.9051   -4.1288 C.2     1  LIG11       0.0856
     16 C           0.3622  -18.1956   -4.7447 C.3     1  LIG11       0.0382
     17 C           3.2841  -16.2001    0.3347 C.ar    1  LIG11      -0.0614
     18 C          -1.4269  -14.7760   -2.1873 C.ar    1  LIG11      -0.0614
     19 C           2.5794  -18.5017    0.2893 C.ar    1  LIG11      -0.0614
     20 C          -0.2844  -13.6198   -3.9599 C.ar    1  LIG11      -0.0614
     21 C           3.1584  -17.4331    0.9678 C.ar    1  LIG11      -0.0617
     22 C          -1.3394  -13.6935   -3.0563 C.ar    1  LIG11      -0.0617
     23 C           4.3129  -14.9840   -4.9317 C.ar    1  LIG11       0.3191
     24 C           5.6838  -13.3124   -5.6833 C.ar    1  LIG11       0.0453
     25 C           4.7893  -14.8939   -7.1703 C.ar    1  LIG11       0.0453
     26 C           5.5945  -13.7911   -6.9759 C.ar    1  LIG11      -0.0193
     27 C           6.5104  -12.1005   -5.3818 C.3     1  LIG11      -0.0221
     28 C           4.6121  -15.4802   -8.5371 C.3     1  LIG11      -0.0221
     29 H           2.4184  -16.6543   -5.1458 H       1  LIG11       0.0834
     30 H           2.9415  -15.0617   -1.4498 H       1  LIG11       0.0621
     31 H          -0.5427  -16.6236   -1.5404 H       1  LIG11       0.0621
     32 H           1.7024  -19.1944   -1.5409 H       1  LIG11       0.0621
     33 H           1.4778  -14.5305   -4.7343 H       1  LIG11       0.0621
     34 H          -0.3235  -19.0481   -4.7582 H       1  LIG11       0.0524
     35 H          -0.2007  -17.3138   -5.0621 H       1  LIG11       0.0524
     36 H           1.1557  -18.4092   -5.4612 H       1  LIG11       0.0524
     37 H           3.7609  -15.3693    0.8446 H       1  LIG11       0.0618
     38 H          -2.2508  -14.8498   -1.4848 H       1  LIG11       0.0618
     39 H           2.4991  -19.4747    0.7649 H       1  LIG11       0.0618
     40 H          -0.2097  -12.7806   -4.6467 H       1  LIG11       0.0618
     41 H           3.5324  -17.5682    1.9777 H       1  LIG11       0.0618
     42 H          -2.0927  -12.9128   -3.0341 H       1  LIG11       0.0618
     43 H           6.1235  -13.3228   -7.7946 H       1  LIG11       0.0653
     44 H           6.4979  -11.8742   -4.3109 H       1  LIG11       0.0293
     45 H           7.5493  -12.2638   -5.6835 H       1  LIG11       0.0293
     46 H           6.1133  -11.2317   -5.9173 H       1  LIG11       0.0293
     47 H           3.9809  -16.3744   -8.5001 H       1  LIG11       0.0293
     48 H           4.1332  -14.7528   -9.1996 H       1  LIG11       0.0293
     49 H           5.5811  -15.7661   -8.9568 H       1  LIG11       0.0293
@<TRIPOS>BOND
     1     1     7    1
     2     1    16    1
     3     2     8    1
     4     2    23    1
     5     3    15   ar
     6     4    15   ar
     7     5    23   ar
     8     5    24   ar
     9     6    23   ar
    10     6    25   ar
    11     7     8    1
    12     7     9    1
    13     7    10    1
    14     8    15    1
    15     9    11   ar
    16     9    13   ar
    17    10    12   ar
    18    10    14   ar
    19    11    17   ar
    20    12    18   ar
    21    13    19   ar
    22    14    20   ar
    23    17    21   ar
    24    18    22   ar
    25    19    21   ar
    26    20    22   ar
    27    24    26   ar
    28    24    27    1
    29    25    26   ar
    30    25    28    1
    31     8    29    1
    32    11    30    1
    33    12    31    1
    34    13    32    1
    35    14    33    1
    36    16    34    1
    37    16    35    1
    38    16    36    1
    39    17    37    1
    40    18    38    1
    41    19    39    1
    42    20    40    1
    43    21    41    1
    44    22    42    1
    45    26    43    1
    46    27    44    1
    47    27    45    1
    48    27    46    1
    49    28    47    1
    50    28    48    1
    51    28    49    1
@<TRIPOS>MOLECULE
../1EDN/XRAY_17-21.pdb
 47 48 0 0 0
SMALL
GASTEIGER

@<TRIPOS>ATOM
      1  N          6.4500  -19.7300   -2.8460 N.3    17  LEU17      -0.1231
      2  CA         5.2640  -20.1680   -2.1160 C.3    17  LEU17       0.1693
      3  C          4.7010  -18.8060   -1.6720 C.2    17  LEU17       0.2592
      4  O          4.3760  -17.9800   -2.5270 O.2    17  LEU17      -0.2718
      5  CB         5.6570  -21.0170   -0.8850 C.3    17  LEU17       0.0284
      6  CG         5.4050  -22.5400   -0.8470 C.3    17  LEU17       0.0019
      7  CD1        6.1110  -23.2140    0.3150 C.3    17  LEU17       0.0001
      8  CD2        3.9240  -22.7940   -0.7690 C.3    17  LEU17       0.0001
      9  N          4.7270  -18.4910   -0.3800 N.am   18  ASP18      -0.1962
     10  CA         4.1720  -17.2010    0.0630 C.3    18  ASP18       0.1783
     11  C          4.7750  -15.8130   -0.3500 C.2    18  ASP18       0.2620
     12  O          4.1570  -14.7710   -0.0750 O.2    18  ASP18      -0.2715
     13  CB         3.8720  -17.2370    1.5730 C.3    18  ASP18       0.0728
     14  CG         2.4440  -17.7210    1.8880 C.2    18  ASP18       0.0526
     15  OD1        1.8320  -18.4410    1.0660 O.co2  18  ASP18      -0.5491
     16  OD2        1.9260  -17.3730    2.9700 O.co2  18  ASP18      -0.5491
     17  N          5.9570  -15.7420   -0.9630 N.am   19  ILE19      -0.1963
     18  CA         6.4450  -14.4030   -1.3510 C.3    19  ILE19       0.1727
     19  C          5.5760  -13.9960   -2.5290 C.2    19  ILE19       0.2616
     20  O          4.8370  -13.0080   -2.4770 O.2    19  ILE19      -0.2715
     21  CB         7.9140  -14.3690   -1.8400 C.3    19  ILE19       0.0290
     22  CG1        8.8760  -14.8240   -0.7490 C.3    19  ILE19       0.0022
     23  CG2        8.2810  -12.9320   -2.2380 C.3    19  ILE19       0.0023
     24  CD1        9.3280  -13.7050    0.1860 C.3    19  ILE19       0.0001
     25  N          5.7170  -14.7750   -3.5990 N.am   20  ILE20      -0.1963
     26  CA         4.9770  -14.6140   -4.8450 C.3    20  ILE20       0.1727
     27  C          4.7560  -16.0550   -5.2510 C.2    20  ILE20       0.2615
     28  O          5.5820  -16.9240   -4.9410 O.2    20  ILE20      -0.2715
     29  CB         5.8140  -13.8870   -5.9550 C.3    20  ILE20       0.0290
     30  CG1        5.9530  -12.3980   -5.6400 C.3    20  ILE20       0.0022
     31  CG2        5.1640  -14.0490   -7.3150 C.3    20  ILE20       0.0023
     32  CD1        6.8340  -11.6390   -6.6010 C.3    20  ILE20       0.0001
     33  N          3.6520  -16.3070   -5.9350 N.am   21  TRP21      -0.1988
     34  CA         3.3300  -17.6370   -6.4010 C.3    21  TRP21       0.1456
     35  C          2.5650  -17.6270   -7.7180 C.2    21  TRP21       0.1166
     36  O          1.8980  -18.6320   -8.0750 O.co2  21  TRP21      -0.3065
     37  CB         2.6690  -18.5180   -5.3120 C.3    21  TRP21       0.0562
     38  CG         1.5690  -17.9980   -4.3600 C.ar   21  TRP21       0.0005
     39  CD1        0.7990  -18.7930   -3.5490 C.ar   21  TRP21       0.0946
     40  CD2        1.2480  -16.6350   -3.9890 C.ar   21  TRP21       0.0152
     41  CE2        0.3020  -16.7070   -2.9250 C.ar   21  TRP21       0.0810
     42  CE3        1.6680  -15.3700   -4.4360 C.ar   21  TRP21       0.0012
     43  NE1        0.0520  -18.0350   -2.6840 N.ar   21  TRP21      -0.2442
     44  CZ2       -0.2230  -15.5590   -2.2950 C.ar   21  TRP21       0.0191
     45  CZ3        1.1420  -14.2140   -3.8060 C.ar   21  TRP21       0.0001
     46  CH2        0.2070  -14.3240   -2.7450 C.ar   21  TRP21       0.0015
     47  OXT        2.7400  -16.6140   -8.4280 O.co2  21  TRP21      -0.8460
@<TRIPOS>BOND
     1    47    35   ar
     2    36    35   ar
     3    35    34    1
     4    31    29    1
     5    32    30    1
     6    34    33    1
     7    34    37    1
     8    29    30    1
     9    29    26    1
    10    33    27   am
    11    37    38    1
    12    27    28    2
    13    27    26    1
    14    26    25    1
    15    42    40   ar
    16    42    45   ar
    17    38    40   ar
    18    38    39   ar
    19    40    41   ar
    20    45    46   ar
    21    25    19   am
    22    39    43   ar
    23    41    43   ar
    24    41    44   ar
    25     1     2    1
    26    46    44   ar
    27    19    20    2
    28    19    18    1
    29     4     3    2
    30    23    21    1
    31     2     3    1
    32     2     5    1
    33    21    18    1
    34    21    22    1
    35     3     9   am
    36    18    17    1
    37    17    11   am
    38     5     6    1
    39     6     8    1
    40     6     7    1
    41    22    24    1
    42     9    10    1
    43    11    12    2
    44    11    10    1
    45    10    13    1
    46    15    14   ar
    47    13    14    1
    48    14    16   ar
