@<TRIPOS>MOLECULE
../1EDN/3STEPMIN_17-21_NOBACKBONE.pdb
 26 23 0 0 0
SMALL
GASTEIGER

@<TRIPOS>ATOM
      1  CB        -6.9230   -0.4370    0.2770 C.3    17  LEU17       0.0000
      2  CG        -6.4950   -1.8450   -0.1910 C.3    17  LEU17       0.0000
      3  CD1       -6.5150   -2.8060    0.9980 C.3    17  LEU17       0.0000
      4  CD2       -7.4310   -2.4140   -1.2600 C.3    17  LEU17       0.0000
      5  CB        -9.0510    3.1310    2.7840 C.3    18  ASP18       0.1258
      6  CG       -10.5470    3.4340    2.8500 C.2    18  ASP18       0.3654
      7  OD1      -11.3300    2.4930    2.5610 O.co2  18  ASP18      -0.2456
      8  OD2      -10.9050    4.5930    3.1470 O.co2  18  ASP18      -0.2456
      9  CB        -4.3960    5.7260    0.0740 C.3    19  ILE19       0.0000
     10  CG2       -3.6150    6.9530   -0.4300 C.3    19  ILE19       0.0000
     11  CG1       -3.7730    5.2100    1.3920 C.3    19  ILE19       0.0000
     12  CD1       -3.8620    6.1700    2.5820 C.3    19  ILE19       0.0000
     13  CB        -6.0900    6.2460   -4.5940 C.3    20  ILE20       0.0000
     14  CG2       -6.7980    6.2490   -5.9680 C.3    20  ILE20       0.0000
     15  CG1       -5.7140    7.6970   -4.2070 C.3    20  ILE20       0.0000
     16  CD1       -4.7810    8.4150   -5.1910 C.3    20  ILE20       0.0000
     17  CB        -9.7020    1.6830   -3.5450 C.3    21  TRP21       0.0327
     18  CG       -10.4970    2.2370   -2.3850 C.ar   21  TRP21      -0.0013
     19  CD1      -10.6860    1.5470   -1.2340 C.ar   21  TRP21       0.0946
     20  NE1      -11.3350    2.3340   -0.3040 N.ar   21  TRP21      -0.2442
     21  CE2      -11.5720    3.5950   -0.7990 C.ar   21  TRP21       0.0810
     22  CZ2      -12.0950    4.7480   -0.2000 C.ar   21  TRP21       0.0191
     23  CH2      -12.2340    5.9130   -0.9670 C.ar   21  TRP21       0.0015
     24  CZ3      -11.8800    5.8920   -2.3260 C.ar   21  TRP21       0.0001
     25  CE3      -11.3480    4.7280   -2.9100 C.ar   21  TRP21       0.0012
     26  CD2      -11.1270    3.5500   -2.1550 C.ar   21  TRP21       0.0152
@<TRIPOS>BOND
     1    14    13    1
     2    16    15    1
     3    13    15    1
     4    17    18    1
     5    25    24   ar
     6    25    26   ar
     7    18    26   ar
     8    18    19   ar
     9    24    23   ar
    10    26    21   ar
    11     4     2    1
    12    19    20   ar
    13    23    22   ar
    14    21    20   ar
    15    21    22   ar
    16    10     9    1
    17     2     1    1
    18     2     3    1
    19     9    11    1
    20    11    12    1
    21     7     6   ar
    22     5     6    1
    23     6     8   ar
@<TRIPOS>MOLECULE
11672244
 53 58 0 0 0
SMALL
GASTEIGER

@<TRIPOS>ATOM
      1 O          -7.3618    3.0870    1.4160 O.3     1  LIG11      -0.4607
      2 O          -9.2066   -3.4729   -0.4237 O.2     1  LIG11      -0.2968
      3 O          -1.4466    4.3394    0.6292 O.co2   1  LIG11      -0.5492
      4 O          -0.9312    4.8746    2.7739 O.co2   1  LIG11      -0.5492
      5 O          -8.7696    1.7761    2.6780 O.2     1  LIG11      -0.2456
      6 O         -13.4717    6.4086   -0.4064 O.3     1  LIG11      -0.5067
      7 O          -8.0502    3.5991   -2.7981 O.2     1  LIG11      -0.2705
      8 O          -7.9888   -0.2464   -6.0592 O.co2   1  LIG11      -0.5452
      9 O          -7.1812    1.3562   -7.4761 O.co2   1  LIG11      -0.5452
     10 N         -10.2144    2.7366   -3.0361 N.am    1  LIG11      -0.2815
     11 C          -4.8135    1.0343    1.4462 C.3     1  LIG11      -0.0160
     12 C          -5.6346    0.7879    0.1266 C.3     1  LIG11      -0.0256
     13 C          -4.9052    2.6230    1.8527 C.3     1  LIG11       0.0318
     14 C          -5.9851   -0.7236   -0.2603 C.3     1  LIG11      -0.0243
     15 C          -6.5849   -1.4092    1.0193 C.3     1  LIG11      -0.0235
     16 C          -5.3554    0.1334    2.5873 C.3     1  LIG11      -0.0461
     17 C          -4.5876    3.5166    0.6313 C.2     1  LIG11      -0.0596
     18 C          -4.2549    4.9934    0.9282 C.3     1  LIG11      -0.0080
     19 C          -5.5888   -1.3242    2.1930 C.3     1  LIG11      -0.0483
     20 C          -3.8861    2.9255    3.0056 C.3     1  LIG11      -0.0392
     21 C          -5.0617    1.6394   -1.0246 C.3     1  LIG11      -0.0306
     22 C          -3.2031    5.1869    2.0515 C.3     1  LIG11       0.0167
     23 C          -7.2333   -2.8203    0.8265 C.3     1  LIG11       0.0267
     24 C          -7.1138   -0.7057   -1.3350 C.3     1  LIG11      -0.0404
     25 C          -3.6641    4.4121    3.3071 C.3     1  LIG11      -0.0408
     26 C          -3.3182    0.6391    1.2255 C.3     1  LIG11      -0.0584
     27 C          -4.6646    3.0297   -0.6244 C.2     1  LIG11      -0.0835
     28 C          -6.3204    3.0532    2.4051 C.3     1  LIG11       0.1025
     29 C          -4.7789   -1.4875   -0.8565 C.3     1  LIG11      -0.0590
     30 C          -3.9663    5.8908   -0.3040 C.3     1  LIG11      -0.0405
     31 C          -3.1099    6.6936    2.4052 C.3     1  LIG11      -0.0412
     32 C          -7.7197   -2.0703   -1.6382 C.3     1  LIG11       0.0069
     33 C          -3.7798    7.3903    0.0289 C.3     1  LIG11      -0.0343
     34 C          -8.1701   -2.8007   -0.3950 C.2     1  LIG11       0.1392
     35 C          -2.7839    7.5667    1.1910 C.3     1  LIG11      -0.0470
     36 C          -6.2370   -3.9761    0.6571 C.3     1  LIG11      -0.0528
     37 C          -8.1084   -3.1531    2.0657 C.3     1  LIG11      -0.0528
     38 C          -1.7209    4.7515    1.7879 C.2     1  LIG11       0.0485
     39 C          -3.2268    8.1098   -1.2175 C.3     1  LIG11      -0.0598
     40 C          -5.1361    8.0379    0.3770 C.3     1  LIG11      -0.0598
     41 C          -8.5307    2.4845    1.7097 C.2     1  LIG11       0.3320
     42 C          -9.5896    2.8559    0.7476 C.2     1  LIG11       0.0231
     43 C          -9.4376    3.7463   -0.2459 C.2     1  LIG11      -0.0460
     44 C         -10.5922    4.1930   -1.0381 C.ar    1  LIG11      -0.0001
     45 C         -10.9686    3.6587   -2.2852 C.ar    1  LIG11       0.0411
     46 C         -11.4368    5.1319   -0.4115 C.ar    1  LIG11      -0.0113
     47 C         -12.2110    4.0189   -2.8369 C.ar    1  LIG11      -0.0364
     48 C         -12.6412    5.5041   -1.0003 C.ar    1  LIG11       0.1175
     49 C         -13.0396    4.9458   -2.2032 C.ar    1  LIG11      -0.0184
     50 C          -8.8417    2.7690   -3.2189 C.2     1  LIG11       0.2411
     51 C          -8.4477    1.6998   -4.1646 C.2     1  LIG11       0.0021
     52 C          -7.8623    2.0028   -5.3306 C.2     1  LIG11      -0.0344
     53 C          -7.6370    0.9241   -6.3807 C.2     1  LIG11       0.0647
@<TRIPOS>BOND
     1     1    41    1
     2     1    28    1
     3     2    34    2
     4     3    38   ar
     5     4    38   ar
     6     5    41    2
     7     6    48    1
     8     7    50    2
     9     8    53   ar
    10     9    53   ar
    11    10    45    1
    12    10    50   am
    13    11    16    1
    14    11    12    1
    15    11    26    1
    16    11    13    1
    17    12    14    1
    18    13    20    1
    19    13    17    1
    20    13    28    1
    21    14    15    1
    22    14    24    1
    23    14    29    1
    24    15    19    1
    25    15    23    1
    26    16    19    1
    27    17    18    1
    28    17    27    2
    29    18    30    1
    30    18    22    1
    31    20    25    1
    32    21    27    1
    33    21    12    1
    34    22    31    1
    35    22    25    1
    36    22    38    1
    37    23    34    1
    38    23    37    1
    39    23    36    1
    40    24    32    1
    41    30    33    1
    42    31    35    1
    43    32    34    1
    44    33    35    1
    45    33    40    1
    46    33    39    1
    47    41    42    1
    48    42    43    2
    49    43    44    1
    50    44    46   ar
    51    44    45   ar
    52    45    47   ar
    53    46    48   ar
    54    47    49   ar
    55    48    49   ar
    56    50    51    1
    57    51    52    2
    58    52    53    1
@<TRIPOS>MOLECULE
../1EDN/3STEPMIN_17-21.pdb
 47 48 0 0 0
SMALL
GASTEIGER

@<TRIPOS>ATOM
      1  N         -5.4290    0.8830   -1.1740 N.3    17  LEU17      -0.1231
      2  CA        -6.8230    0.6710   -0.7980 C.3    17  LEU17       0.1693
      3  CB        -6.9230   -0.4370    0.2770 C.3    17  LEU17       0.0284
      4  CG        -6.4950   -1.8450   -0.1910 C.3    17  LEU17       0.0019
      5  CD1       -6.5150   -2.8060    0.9980 C.3    17  LEU17       0.0001
      6  CD2       -7.4310   -2.4140   -1.2600 C.3    17  LEU17       0.0001
      7  C         -7.3990    2.0370   -0.3760 C.2    17  LEU17       0.2592
      8  O         -7.4670    2.9330   -1.2040 O.2    17  LEU17      -0.2718
      9  N         -7.7380    2.2560    0.8970 N.am   18  ASP18      -0.1960
     10  CA        -8.5130    3.4280    1.3730 C.3    18  ASP18       0.1840
     11  CB        -9.0510    3.1310    2.7840 C.3    18  ASP18       0.1450
     12  CG       -10.5470    3.4340    2.8500 C.2    18  ASP18       0.3671
     13  OD1      -11.3300    2.4930    2.5610 O.co2  18  ASP18      -0.2456
     14  OD2      -10.9050    4.5930    3.1470 O.co2  18  ASP18      -0.2456
     15  C         -7.8270    4.8120    1.2910 C.2    18  ASP18       0.2622
     16  O         -8.3890    5.8210    1.7350 O.2    18  ASP18      -0.2715
     17  N         -6.6250    4.8510    0.7010 N.am   19  ILE19      -0.1963
     18  CA        -5.9180    6.0210    0.1680 C.3    19  ILE19       0.1727
     19  CB        -4.3960    5.7260    0.0740 C.3    19  ILE19       0.0290
     20  CG2       -3.6150    6.9530   -0.4300 C.3    19  ILE19       0.0023
     21  CG1       -3.7730    5.2100    1.3920 C.3    19  ILE19       0.0022
     22  CD1       -3.8620    6.1700    2.5820 C.3    19  ILE19       0.0001
     23  C         -6.4970    6.4050   -1.2110 C.2    19  ILE19       0.2616
     24  O         -7.0070    7.5130   -1.3720 O.2    19  ILE19      -0.2715
     25  N         -6.3950    5.4980   -2.1940 N.am   20  ILE20      -0.1963
     26  CA        -6.9990    5.5490   -3.5400 C.3    20  ILE20       0.1727
     27  CB        -6.0900    6.2460   -4.5940 C.3    20  ILE20       0.0290
     28  CG2       -6.7980    6.2490   -5.9680 C.3    20  ILE20       0.0023
     29  CG1       -5.7140    7.6970   -4.2070 C.3    20  ILE20       0.0022
     30  CD1       -4.7810    8.4150   -5.1910 C.3    20  ILE20       0.0001
     31  C         -7.3180    4.1070   -3.9880 C.2    20  ILE20       0.2617
     32  O         -6.4020    3.3070   -4.2100 O.2    20  ILE20      -0.2715
     33  N         -8.6100    3.8210   -4.1620 N.am   21  TRP21      -0.1938
     34  CA        -9.2240    2.5950   -4.7020 C.3    21  TRP21       0.2021
     35  CB        -9.7020    1.6830   -3.5450 C.3    21  TRP21       0.0612
     36  CG       -10.4970    2.2370   -2.3850 C.ar   21  TRP21       0.0007
     37  CD1      -10.6860    1.5470   -1.2340 C.ar   21  TRP21       0.0946
     38  NE1      -11.3350    2.3340   -0.3040 N.ar   21  TRP21      -0.2442
     39  CE2      -11.5720    3.5950   -0.7990 C.ar   21  TRP21       0.0810
     40  CZ2      -12.0950    4.7480   -0.2000 C.ar   21  TRP21       0.0191
     41  CH2      -12.2340    5.9130   -0.9670 C.ar   21  TRP21       0.0015
     42  CZ3      -11.8800    5.8920   -2.3260 C.ar   21  TRP21       0.0001
     43  CE3      -11.3480    4.7280   -2.9100 C.ar   21  TRP21       0.0012
     44  CD2      -11.1270    3.5500   -2.1550 C.ar   21  TRP21       0.0152
     45  C        -10.3230    2.8760   -5.7330 C.2    21  TRP21       0.3845
     46  O        -11.0800    1.9620   -6.0950 O.co2  21  TRP21      -0.2437
     47  OXT      -10.4270    4.0430   -6.2080 O.co2  21  TRP21      -0.2437
@<TRIPOS>BOND
     1    47    45   ar
     2    46    45   ar
     3    28    27    1
     4    45    34    1
     5    30    29    1
     6    34    33    1
     7    34    35    1
     8    27    29    1
     9    27    26    1
    10    32    31    2
    11    33    31   am
    12    31    26    1
    13    35    36    1
    14    26    25    1
    15    43    42   ar
    16    43    44   ar
    17    36    44   ar
    18    36    37   ar
    19    42    41   ar
    20    25    23   am
    21    44    39   ar
    22    24    23    2
    23     6     4    1
    24    37    38   ar
    25    23    18    1
    26     8     7    2
    27     1     2    1
    28    41    40   ar
    29    39    38   ar
    30    39    40   ar
    31     2     7    1
    32     2     3    1
    33    20    19    1
    34     7     9   am
    35     4     3    1
    36     4     5    1
    37    19    18    1
    38    19    21    1
    39    18    17    1
    40    17    15   am
    41     9    10    1
    42    15    10    1
    43    15    16    2
    44    10    11    1
    45    21    22    1
    46    13    12   ar
    47    11    12    1
    48    12    14   ar
