@<TRIPOS>MOLECULE
../1EDN/3STEPMIN_17-21_NOBACKBONE.pdb
 26 23 0 0 0
SMALL
GASTEIGER

@<TRIPOS>ATOM
      1  CB        -6.9230   -0.4370    0.2770 C.3    17  LEU17       0.0000
      2  CG        -6.4950   -1.8450   -0.1910 C.3    17  LEU17       0.0000
      3  CD1       -6.5150   -2.8060    0.9980 C.3    17  LEU17       0.0000
      4  CD2       -7.4310   -2.4140   -1.2600 C.3    17  LEU17       0.0000
      5  CB        -9.0510    3.1310    2.7840 C.3    18  ASP18       0.1258
      6  CG       -10.5470    3.4340    2.8500 C.2    18  ASP18       0.3654
      7  OD1      -11.3300    2.4930    2.5610 O.co2  18  ASP18      -0.2456
      8  OD2      -10.9050    4.5930    3.1470 O.co2  18  ASP18      -0.2456
      9  CB        -4.3960    5.7260    0.0740 C.3    19  ILE19       0.0000
     10  CG2       -3.6150    6.9530   -0.4300 C.3    19  ILE19       0.0000
     11  CG1       -3.7730    5.2100    1.3920 C.3    19  ILE19       0.0000
     12  CD1       -3.8620    6.1700    2.5820 C.3    19  ILE19       0.0000
     13  CB        -6.0900    6.2460   -4.5940 C.3    20  ILE20       0.0000
     14  CG2       -6.7980    6.2490   -5.9680 C.3    20  ILE20       0.0000
     15  CG1       -5.7140    7.6970   -4.2070 C.3    20  ILE20       0.0000
     16  CD1       -4.7810    8.4150   -5.1910 C.3    20  ILE20       0.0000
     17  CB        -9.7020    1.6830   -3.5450 C.3    21  TRP21       0.0327
     18  CG       -10.4970    2.2370   -2.3850 C.ar   21  TRP21      -0.0013
     19  CD1      -10.6860    1.5470   -1.2340 C.ar   21  TRP21       0.0946
     20  NE1      -11.3350    2.3340   -0.3040 N.ar   21  TRP21      -0.2442
     21  CE2      -11.5720    3.5950   -0.7990 C.ar   21  TRP21       0.0810
     22  CZ2      -12.0950    4.7480   -0.2000 C.ar   21  TRP21       0.0191
     23  CH2      -12.2340    5.9130   -0.9670 C.ar   21  TRP21       0.0015
     24  CZ3      -11.8800    5.8920   -2.3260 C.ar   21  TRP21       0.0001
     25  CE3      -11.3480    4.7280   -2.9100 C.ar   21  TRP21       0.0012
     26  CD2      -11.1270    3.5500   -2.1550 C.ar   21  TRP21       0.0152
@<TRIPOS>BOND
     1    14    13    1
     2    16    15    1
     3    13    15    1
     4    17    18    1
     5    25    24   ar
     6    25    26   ar
     7    18    26   ar
     8    18    19   ar
     9    24    23   ar
    10    26    21   ar
    11     4     2    1
    12    19    20   ar
    13    23    22   ar
    14    21    20   ar
    15    21    22   ar
    16    10     9    1
    17     2     1    1
    18     2     3    1
    19     9    11    1
    20    11    12    1
    21     7     6   ar
    22     5     6    1
    23     6     8   ar
@<TRIPOS>MOLECULE
104865
 39 42 0 0 0
SMALL
GASTEIGER

@<TRIPOS>ATOM
      1 S          -8.9332    5.6160   -0.8367 S.O2    1  LIG11       0.0736
      2 O          -9.1364    6.9240   -0.2509 O.2     1  LIG11      -0.1499
      3 O          -8.0160    5.4285   -1.9403 O.2     1  LIG11      -0.1499
      4 O          -6.6064    2.9696   -1.0232 O.3     1  LIG11      -0.4435
      5 O          -7.0299    0.1825   -0.8248 O.3     1  LIG11      -0.4715
      6 O          -3.9714    2.6713   -1.3915 O.3     1  LIG11      -0.4914
      7 O          -5.2500   -1.7767   -1.7765 O.3     1  LIG11      -0.3917
      8 N          -8.5021    4.5901    0.4244 N.pl3   1  LIG11      -0.1963
      9 N          -9.7618    2.7467    0.7804 N.ar    1  LIG11      -0.2044
     10 N          -9.1358    0.5545    0.1216 N.ar    1  LIG11      -0.1866
     11 N         -11.4457   -0.4455    1.3114 N.ar    1  LIG11      -0.2331
     12 N         -12.2584    1.7880    1.5480 N.ar    1  LIG11      -0.2331
     13 C         -14.4067    3.4320   -2.5346 C.3     1  LIG11      -0.0127
     14 C         -13.0288    3.9940   -2.1421 C.ar    1  LIG11      -0.0419
     15 C         -15.3587    4.6010   -2.8610 C.3     1  LIG11      -0.0560
     16 C         -14.9922    2.6055   -1.3685 C.3     1  LIG11      -0.0560
     17 C         -14.3713    2.5033   -3.7697 C.3     1  LIG11      -0.0560
     18 C         -12.8904    4.7836   -0.9808 C.ar    1  LIG11      -0.0562
     19 C         -11.8757    3.7639   -2.9124 C.ar    1  LIG11      -0.0562
     20 C         -10.5237    5.0162   -1.3539 C.ar    1  LIG11       0.1086
     21 C         -11.6513    5.2947   -0.5858 C.ar    1  LIG11      -0.0348
     22 C         -10.6342    4.2764   -2.5295 C.ar    1  LIG11      -0.0348
     23 C          -8.6342    3.1963    0.2114 C.ar    1  LIG11       0.1883
     24 C          -7.7261    2.4147   -0.4697 C.ar    1  LIG11       0.2307
     25 C          -8.0031    1.0619   -0.3994 C.ar    1  LIG11       0.2642
     26 C         -10.0044    1.4242    0.6765 C.ar    1  LIG11       0.2027
     27 C          -6.1752    2.4928   -2.2483 C.ar    1  LIG11       0.1702
     28 C         -11.2951    0.8973    1.2078 C.ar    1  LIG11       0.1978
     29 C          -7.3255   -1.2069   -0.6476 C.3     1  LIG11       0.1143
     30 C          -4.7939    2.3555   -2.4426 C.ar    1  LIG11       0.1621
     31 C          -7.0563    2.1991   -3.2979 C.ar    1  LIG11      -0.0157
     32 C          -4.3117    1.8415   -3.6514 C.ar    1  LIG11      -0.0163
     33 C          -5.9893   -1.9402   -0.5678 C.3     1  LIG11       0.0783
     34 C          -6.5671    1.7043   -4.5079 C.ar    1  LIG11      -0.0581
     35 C          -5.1979    1.5153   -4.6800 C.ar    1  LIG11      -0.0581
     36 C         -12.6258   -0.8905    1.7796 C.ar    1  LIG11       0.0315
     37 C         -13.4197    1.2828    2.0016 C.ar    1  LIG11       0.0315
     38 C         -13.6605   -0.0623    2.1400 C.ar    1  LIG11      -0.0254
     39 C          -2.7840    3.3595   -1.7754 C.3     1  LIG11       0.0790
@<TRIPOS>BOND
     1     1     2    2
     2     1     3    2
     3     1     8    1
     4     1    20    1
     5     4    24    1
     6     4    27    1
     7     5    25    1
     8     5    29    1
     9     6    30    1
    10     6    39    1
    11     7    33    1
    12     8    23    1
    13     9    23   ar
    14     9    26   ar
    15    10    25   ar
    16    10    26   ar
    17    11    28   ar
    18    11    36   ar
    19    12    28   ar
    20    12    37   ar
    21    13    14    1
    22    13    15    1
    23    13    16    1
    24    13    17    1
    25    14    18   ar
    26    14    19   ar
    27    18    21   ar
    28    19    22   ar
    29    20    21   ar
    30    20    22   ar
    31    23    24   ar
    32    24    25   ar
    33    26    28    1
    34    27    30   ar
    35    27    31   ar
    36    29    33    1
    37    30    32   ar
    38    31    34   ar
    39    32    35   ar
    40    34    35   ar
    41    36    38   ar
    42    37    38   ar
@<TRIPOS>MOLECULE
../1EDN/3STEPMIN_17-21.pdb
 47 48 0 0 0
SMALL
GASTEIGER

@<TRIPOS>ATOM
      1  N         -5.4290    0.8830   -1.1740 N.3    17  LEU17      -0.1231
      2  CA        -6.8230    0.6710   -0.7980 C.3    17  LEU17       0.1693
      3  CB        -6.9230   -0.4370    0.2770 C.3    17  LEU17       0.0284
      4  CG        -6.4950   -1.8450   -0.1910 C.3    17  LEU17       0.0019
      5  CD1       -6.5150   -2.8060    0.9980 C.3    17  LEU17       0.0001
      6  CD2       -7.4310   -2.4140   -1.2600 C.3    17  LEU17       0.0001
      7  C         -7.3990    2.0370   -0.3760 C.2    17  LEU17       0.2592
      8  O         -7.4670    2.9330   -1.2040 O.2    17  LEU17      -0.2718
      9  N         -7.7380    2.2560    0.8970 N.am   18  ASP18      -0.1960
     10  CA        -8.5130    3.4280    1.3730 C.3    18  ASP18       0.1840
     11  CB        -9.0510    3.1310    2.7840 C.3    18  ASP18       0.1450
     12  CG       -10.5470    3.4340    2.8500 C.2    18  ASP18       0.3671
     13  OD1      -11.3300    2.4930    2.5610 O.co2  18  ASP18      -0.2456
     14  OD2      -10.9050    4.5930    3.1470 O.co2  18  ASP18      -0.2456
     15  C         -7.8270    4.8120    1.2910 C.2    18  ASP18       0.2622
     16  O         -8.3890    5.8210    1.7350 O.2    18  ASP18      -0.2715
     17  N         -6.6250    4.8510    0.7010 N.am   19  ILE19      -0.1963
     18  CA        -5.9180    6.0210    0.1680 C.3    19  ILE19       0.1727
     19  CB        -4.3960    5.7260    0.0740 C.3    19  ILE19       0.0290
     20  CG2       -3.6150    6.9530   -0.4300 C.3    19  ILE19       0.0023
     21  CG1       -3.7730    5.2100    1.3920 C.3    19  ILE19       0.0022
     22  CD1       -3.8620    6.1700    2.5820 C.3    19  ILE19       0.0001
     23  C         -6.4970    6.4050   -1.2110 C.2    19  ILE19       0.2616
     24  O         -7.0070    7.5130   -1.3720 O.2    19  ILE19      -0.2715
     25  N         -6.3950    5.4980   -2.1940 N.am   20  ILE20      -0.1963
     26  CA        -6.9990    5.5490   -3.5400 C.3    20  ILE20       0.1727
     27  CB        -6.0900    6.2460   -4.5940 C.3    20  ILE20       0.0290
     28  CG2       -6.7980    6.2490   -5.9680 C.3    20  ILE20       0.0023
     29  CG1       -5.7140    7.6970   -4.2070 C.3    20  ILE20       0.0022
     30  CD1       -4.7810    8.4150   -5.1910 C.3    20  ILE20       0.0001
     31  C         -7.3180    4.1070   -3.9880 C.2    20  ILE20       0.2617
     32  O         -6.4020    3.3070   -4.2100 O.2    20  ILE20      -0.2715
     33  N         -8.6100    3.8210   -4.1620 N.am   21  TRP21      -0.1938
     34  CA        -9.2240    2.5950   -4.7020 C.3    21  TRP21       0.2021
     35  CB        -9.7020    1.6830   -3.5450 C.3    21  TRP21       0.0612
     36  CG       -10.4970    2.2370   -2.3850 C.ar   21  TRP21       0.0007
     37  CD1      -10.6860    1.5470   -1.2340 C.ar   21  TRP21       0.0946
     38  NE1      -11.3350    2.3340   -0.3040 N.ar   21  TRP21      -0.2442
     39  CE2      -11.5720    3.5950   -0.7990 C.ar   21  TRP21       0.0810
     40  CZ2      -12.0950    4.7480   -0.2000 C.ar   21  TRP21       0.0191
     41  CH2      -12.2340    5.9130   -0.9670 C.ar   21  TRP21       0.0015
     42  CZ3      -11.8800    5.8920   -2.3260 C.ar   21  TRP21       0.0001
     43  CE3      -11.3480    4.7280   -2.9100 C.ar   21  TRP21       0.0012
     44  CD2      -11.1270    3.5500   -2.1550 C.ar   21  TRP21       0.0152
     45  C        -10.3230    2.8760   -5.7330 C.2    21  TRP21       0.3845
     46  O        -11.0800    1.9620   -6.0950 O.co2  21  TRP21      -0.2437
     47  OXT      -10.4270    4.0430   -6.2080 O.co2  21  TRP21      -0.2437
@<TRIPOS>BOND
     1    47    45   ar
     2    46    45   ar
     3    28    27    1
     4    45    34    1
     5    30    29    1
     6    34    33    1
     7    34    35    1
     8    27    29    1
     9    27    26    1
    10    32    31    2
    11    33    31   am
    12    31    26    1
    13    35    36    1
    14    26    25    1
    15    43    42   ar
    16    43    44   ar
    17    36    44   ar
    18    36    37   ar
    19    42    41   ar
    20    25    23   am
    21    44    39   ar
    22    24    23    2
    23     6     4    1
    24    37    38   ar
    25    23    18    1
    26     8     7    2
    27     1     2    1
    28    41    40   ar
    29    39    38   ar
    30    39    40   ar
    31     2     7    1
    32     2     3    1
    33    20    19    1
    34     7     9   am
    35     4     3    1
    36     4     5    1
    37    19    18    1
    38    19    21    1
    39    18    17    1
    40    17    15   am
    41     9    10    1
    42    15    10    1
    43    15    16    2
    44    10    11    1
    45    21    22    1
    46    13    12   ar
    47    11    12    1
    48    12    14   ar
