@<TRIPOS>MOLECULE
../1EDN/PCA1_17-21_NOBACKBONE.pdb
 26 23 0 0 0
SMALL
GASTEIGER

@<TRIPOS>ATOM
      1  CB        -6.0770   -2.3450   -1.7480 C.3    17  LEU17       0.0000
      2  CG        -7.4170   -3.0590   -2.1890 C.3    17  LEU17       0.0000
      3  CD1       -7.4920   -3.1930   -3.7220 C.3    17  LEU17       0.0000
      4  CD2       -7.5340   -4.4610   -1.6100 C.3    17  LEU17       0.0000
      5  CB        -8.8290    0.4520    1.4200 C.3    18  ASP18       0.1258
      6  CG        -9.9140    1.2760    2.0640 C.2    18  ASP18       0.3654
      7  OD1      -10.8560    1.7240    1.3430 O.co2  18  ASP18      -0.2456
      8  OD2       -9.7710    1.5960    3.2830 O.co2  18  ASP18      -0.2456
      9  CB        -5.0730    3.3500    3.1520 C.3    19  ILE19       0.0000
     10  CG2       -4.5850    4.5470    3.9530 C.3    19  ILE19       0.0000
     11  CG1       -5.6210    2.1420    3.9730 C.3    19  ILE19       0.0000
     12  CD1       -6.7460    2.5740    4.8760 C.3    19  ILE19       0.0000
     13  CB        -2.8480    5.4620   -0.8180 C.3    20  ILE20       0.0000
     14  CG2       -2.5210    6.1670    0.5290 C.3    20  ILE20       0.0000
     15  CG1       -1.9270    4.2500   -0.9510 C.3    20  ILE20       0.0000
     16  CD1       -0.4520    4.4090   -1.0350 C.3    20  ILE20       0.0000
     17  CB        -7.1930    6.0870   -4.6010 C.3    21  TRP21       0.0066
     18  CG        -8.1480    4.9210   -4.3560 C.3    21  TRP21       0.0452
     19  CD1       -8.4270    4.3170   -3.1580 C.3    21  TRP21       0.1165
     20  NE1       -9.4680    3.4340   -3.3480 N.pl3  21  TRP21      -0.2376
     21  CE2      -10.0400    3.5420   -4.5600 C.ar   21  TRP21       0.0614
     22  CZ2      -11.2420    2.9770   -5.0990 C.ar   21  TRP21       0.0158
     23  CH2      -11.3060    3.0240   -6.5170 C.ar   21  TRP21       0.0013
     24  CZ3      -10.3640    3.7270   -7.2650 C.ar   21  TRP21      -0.0002
     25  CE3       -9.2810    4.3830   -6.7050 C.ar   21  TRP21      -0.0030
     26  CD2       -9.0950    4.3440   -5.3390 C.ar   21  TRP21      -0.0059
@<TRIPOS>BOND
     1    24    25   ar
     2    24    23   ar
     3    25    26   ar
     4    23    22   ar
     5    26    21   ar
     6    26    18    1
     7    22    21   ar
     8    17    18    1
     9    21    20    1
    10    18    19    1
    11     3     2    1
    12    20    19    1
    13     2     1    1
    14     2     4    1
    15    16    15    1
    16    15    13    1
    17    13    14    1
    18     7     6   ar
    19     5     6    1
    20     6     8   ar
    21     9    10    1
    22     9    11    1
    23    11    12    1
@<TRIPOS>MOLECULE
01178588C
 32 34 0 0 0
SMALL
GASTEIGER

@<TRIPOS>ATOM
      1 S         -12.8850    1.5568   -5.3313 S.O2    1  LIG11       0.0756
      2 C         -11.4144    2.5277   -5.5571 C.ar    1  LIG11       0.1344
      3 N         -12.3200   -0.0199   -5.1011 N.pl3   1  LIG11      -0.1951
      4 O         -13.5213    2.0286   -4.1195 O.2     1  LIG11      -0.1499
      5 O         -13.6191    1.6217   -6.5811 O.2     1  LIG11      -0.1499
      6 C         -10.3036    2.4980   -4.7115 C.ar    1  LIG11       0.0975
      7 C         -11.3756    3.3501   -6.6992 C.ar    1  LIG11      -0.0315
      8 C         -12.7298   -0.8990   -6.1329 C.ar    1  LIG11       0.2006
      9 C         -10.0830    1.6820   -3.4910 C.ar    1  LIG11       0.0023
     10 N          -9.1953    3.2456   -5.0135 N.ar    1  LIG11      -0.2530
     11 C         -10.2487    4.1089   -6.9844 C.ar    1  LIG11      -0.0417
     12 C         -14.0067   -1.4727   -6.2043 C.ar    1  LIG11       0.2574
     13 N         -11.8018   -1.0337   -7.1034 N.ar    1  LIG11      -0.2325
     14 C         -11.0096    1.5615   -2.4485 C.ar    1  LIG11      -0.0523
     15 C          -8.8397    1.0407   -3.3010 C.ar    1  LIG11      -0.0523
     16 C          -9.1875    4.0237   -6.1143 C.ar    1  LIG11       0.0284
     17 N         -14.4008   -2.2100   -7.2731 N.ar    1  LIG11      -0.2137
     18 O         -14.8861   -1.2630   -5.1627 O.3     1  LIG11      -0.4773
     19 C         -12.2166   -1.7582   -8.1707 C.ar    1  LIG11       0.0510
     20 C         -10.7391    0.7915   -1.3082 C.ar    1  LIG11      -0.0579
     21 C          -8.5458    0.3097   -2.1432 C.ar    1  LIG11      -0.0579
     22 C         -13.4859   -2.3330   -8.2664 C.ar    1  LIG11       0.0602
     23 C         -15.9139   -2.2432   -5.1059 C.3     1  LIG11       0.0805
     24 C          -9.4984    0.1744   -1.1335 C.ar    1  LIG11      -0.0465
     25 C         -13.8866   -3.0890   -9.4932 C.3     1  LIG11      -0.0208
     26 C          -9.1845   -0.6043    0.1307 C.3     1  LIG11      -0.0174
     27 C          -8.8335    0.2357    1.3817 C.3     1  LIG11       0.0085
     28 C          -8.4857   -0.8340    2.4581 C.2     1  LIG11       0.0477
     29 C         -10.0279    1.0251    1.9324 C.3     1  LIG11      -0.0544
     30 C          -7.6603    1.1903    1.1337 C.3     1  LIG11      -0.0544
     31 O          -9.4344   -1.6024    2.7928 O.co2   1  LIG11      -0.5493
     32 O          -7.2936   -0.8356    2.8769 O.co2   1  LIG11      -0.5493
@<TRIPOS>BOND
     1     1     5    2
     2     1     4    2
     3     1     3    1
     4     1     2    1
     5     2     6   ar
     6     2     7   ar
     7     3     8    1
     8     6    10   ar
     9     6     9    1
    10     7    11   ar
    11     8    12   ar
    12     8    13   ar
    13     9    14   ar
    14     9    15   ar
    15    10    16   ar
    16    11    16   ar
    17    12    17   ar
    18    12    18    1
    19    13    19   ar
    20    14    20   ar
    21    15    21   ar
    22    17    22   ar
    23    18    23    1
    24    19    22   ar
    25    20    24   ar
    26    21    24   ar
    27    22    25    1
    28    24    26    1
    29    26    27    1
    30    27    30    1
    31    27    29    1
    32    27    28    1
    33    28    32   ar
    34    28    31   ar
@<TRIPOS>MOLECULE
../1EDN/PCA1_17-21.pdb
 47 48 0 0 0
SMALL
GASTEIGER

@<TRIPOS>ATOM
      1  N         -4.6470   -0.3680   -1.6750 N.3    17  LEU17      -0.1231
      2  CA        -5.8920   -0.8550   -2.2480 C.3    17  LEU17       0.1693
      3  CB        -6.0770   -2.3450   -1.7480 C.3    17  LEU17       0.0284
      4  CG        -7.4170   -3.0590   -2.1890 C.3    17  LEU17       0.0019
      5  CD1       -7.4920   -3.1930   -3.7220 C.3    17  LEU17       0.0001
      6  CD2       -7.5340   -4.4610   -1.6100 C.3    17  LEU17       0.0001
      7  C         -7.0080    0.1010   -1.8270 C.2    17  LEU17       0.2592
      8  O         -7.6220    0.6590   -2.7680 O.2    17  LEU17      -0.2718
      9  N         -7.2890    0.1920   -0.5460 N.am   18  ASP18      -0.1960
     10  CA        -8.2730    1.1070    0.1120 C.3    18  ASP18       0.1840
     11  CB        -8.8290    0.4520    1.4200 C.3    18  ASP18       0.1450
     12  CG        -9.9140    1.2760    2.0640 C.2    18  ASP18       0.3671
     13  OD1      -10.8560    1.7240    1.3430 O.co2  18  ASP18      -0.2456
     14  OD2       -9.7710    1.5960    3.2830 O.co2  18  ASP18      -0.2456
     15  C         -7.6270    2.4530    0.4740 C.2    18  ASP18       0.2622
     16  O         -8.0770    3.4620   -0.0480 O.2    18  ASP18      -0.2715
     17  N         -6.6010    2.4770    1.3340 N.am   19  ILE19      -0.1963
     18  CA        -6.1660    3.6270    2.0790 C.3    19  ILE19       0.1727
     19  CB        -5.0730    3.3500    3.1520 C.3    19  ILE19       0.0290
     20  CG2       -4.5850    4.5470    3.9530 C.3    19  ILE19       0.0023
     21  CG1       -5.6210    2.1420    3.9730 C.3    19  ILE19       0.0022
     22  CD1       -6.7460    2.5740    4.8760 C.3    19  ILE19       0.0001
     23  C         -5.6740    4.7260    1.1170 C.2    19  ILE19       0.2616
     24  O         -5.9640    5.8590    1.4260 O.2    19  ILE19      -0.2715
     25  N         -4.8940    4.3400    0.1060 N.am   20  ILE20      -0.1963
     26  CA        -4.3700    5.1770   -0.9560 C.3    20  ILE20       0.1727
     27  CB        -2.8480    5.4620   -0.8180 C.3    20  ILE20       0.0290
     28  CG2       -2.5210    6.1670    0.5290 C.3    20  ILE20       0.0023
     29  CG1       -1.9270    4.2500   -0.9510 C.3    20  ILE20       0.0022
     30  CD1       -0.4520    4.4090   -1.0350 C.3    20  ILE20       0.0001
     31  C         -4.8260    4.7960   -2.3980 C.2    20  ILE20       0.2617
     32  O         -4.8210    3.6210   -2.7490 O.2    20  ILE20      -0.2715
     33  N         -5.1950    5.7710   -3.1960 N.am   21  TRP21      -0.1941
     34  CA        -5.6960    5.8160   -4.5740 C.3    21  TRP21       0.1982
     35  CB        -7.1930    6.0870   -4.6010 C.3    21  TRP21       0.0394
     36  CG        -8.1480    4.9210   -4.3560 C.3    21  TRP21       0.0475
     37  CD1       -8.4270    4.3170   -3.1580 C.3    21  TRP21       0.1166
     38  NE1       -9.4680    3.4340   -3.3480 N.pl3  21  TRP21      -0.2376
     39  CE2      -10.0400    3.5420   -4.5600 C.ar   21  TRP21       0.0614
     40  CZ2      -11.2420    2.9770   -5.0990 C.ar   21  TRP21       0.0158
     41  CH2      -11.3060    3.0240   -6.5170 C.ar   21  TRP21       0.0013
     42  CZ3      -10.3640    3.7270   -7.2650 C.ar   21  TRP21      -0.0002
     43  CE3       -9.2810    4.3830   -6.7050 C.ar   21  TRP21      -0.0030
     44  CD2       -9.0950    4.3440   -5.3390 C.ar   21  TRP21      -0.0059
     45  C         -4.8510    6.8160   -5.3910 C.2    21  TRP21       0.3842
     46  O         -5.0400    8.0490   -5.1500 O.co2  21  TRP21      -0.2437
     47  OXT       -3.9720    6.3760   -6.1010 O.co2  21  TRP21      -0.2437
@<TRIPOS>BOND
     1    42    43   ar
     2    42    41   ar
     3    43    44   ar
     4    41    40   ar
     5    47    45   ar
     6    45    46   ar
     7    45    34    1
     8    44    39   ar
     9    44    36    1
    10    40    39   ar
    11    35    34    1
    12    35    36    1
    13    34    33    1
    14    39    38    1
    15    36    37    1
    16     5     4    1
    17    38    37    1
    18    33    31   am
    19     8     7    2
    20    32    31    2
    21    31    26    1
    22     2     7    1
    23     2     3    1
    24     2     1    1
    25     4     3    1
    26     4     6    1
    27     7     9   am
    28    30    29    1
    29    26    27    1
    30    26    25    1
    31    29    27    1
    32    27    28    1
    33     9    10    1
    34    16    15    2
    35    25    23   am
    36    10    15    1
    37    10    11    1
    38    15    17   am
    39    23    24    2
    40    23    18    1
    41    17    18    1
    42    13    12   ar
    43    11    12    1
    44    12    14   ar
    45    18    19    1
    46    19    20    1
    47    19    21    1
    48    21    22    1
