@<TRIPOS>MOLECULE
../1EDN/PCA1_17-21_NOBACKBONE.pdb
 26 23 0 0 0
SMALL
GASTEIGER

@<TRIPOS>ATOM
      1  CB        -6.0770   -2.3450   -1.7480 C.3    17  LEU17       0.0000
      2  CG        -7.4170   -3.0590   -2.1890 C.3    17  LEU17       0.0000
      3  CD1       -7.4920   -3.1930   -3.7220 C.3    17  LEU17       0.0000
      4  CD2       -7.5340   -4.4610   -1.6100 C.3    17  LEU17       0.0000
      5  CB        -8.8290    0.4520    1.4200 C.3    18  ASP18       0.1258
      6  CG        -9.9140    1.2760    2.0640 C.2    18  ASP18       0.3654
      7  OD1      -10.8560    1.7240    1.3430 O.co2  18  ASP18      -0.2456
      8  OD2       -9.7710    1.5960    3.2830 O.co2  18  ASP18      -0.2456
      9  CB        -5.0730    3.3500    3.1520 C.3    19  ILE19       0.0000
     10  CG2       -4.5850    4.5470    3.9530 C.3    19  ILE19       0.0000
     11  CG1       -5.6210    2.1420    3.9730 C.3    19  ILE19       0.0000
     12  CD1       -6.7460    2.5740    4.8760 C.3    19  ILE19       0.0000
     13  CB        -2.8480    5.4620   -0.8180 C.3    20  ILE20       0.0000
     14  CG2       -2.5210    6.1670    0.5290 C.3    20  ILE20       0.0000
     15  CG1       -1.9270    4.2500   -0.9510 C.3    20  ILE20       0.0000
     16  CD1       -0.4520    4.4090   -1.0350 C.3    20  ILE20       0.0000
     17  CB        -7.1930    6.0870   -4.6010 C.3    21  TRP21       0.0066
     18  CG        -8.1480    4.9210   -4.3560 C.3    21  TRP21       0.0452
     19  CD1       -8.4270    4.3170   -3.1580 C.3    21  TRP21       0.1165
     20  NE1       -9.4680    3.4340   -3.3480 N.pl3  21  TRP21      -0.2376
     21  CE2      -10.0400    3.5420   -4.5600 C.ar   21  TRP21       0.0614
     22  CZ2      -11.2420    2.9770   -5.0990 C.ar   21  TRP21       0.0158
     23  CH2      -11.3060    3.0240   -6.5170 C.ar   21  TRP21       0.0013
     24  CZ3      -10.3640    3.7270   -7.2650 C.ar   21  TRP21      -0.0002
     25  CE3       -9.2810    4.3830   -6.7050 C.ar   21  TRP21      -0.0030
     26  CD2       -9.0950    4.3440   -5.3390 C.ar   21  TRP21      -0.0059
@<TRIPOS>BOND
     1    24    25   ar
     2    24    23   ar
     3    25    26   ar
     4    23    22   ar
     5    26    21   ar
     6    26    18    1
     7    22    21   ar
     8    17    18    1
     9    21    20    1
    10    18    19    1
    11     3     2    1
    12    20    19    1
    13     2     1    1
    14     2     4    1
    15    16    15    1
    16    15    13    1
    17    13    14    1
    18     7     6   ar
    19     5     6    1
    20     6     8   ar
    21     9    10    1
    22     9    11    1
    23    11    12    1
@<TRIPOS>MOLECULE
01012527H
 38 40 0 0 0
SMALL
GASTEIGER

@<TRIPOS>ATOM
      1 C          -6.8217    3.3321   -4.7767 C.3     1  LIG11       0.0531
      2 C          -6.6966    2.6847   -3.4022 C.3     1  LIG11      -0.0111
      3 C          -7.9358    4.3691   -4.7181 C.3     1  LIG11       0.0375
      4 C          -5.4387    3.9566   -4.9095 C.2     1  LIG11       0.0509
      5 N          -7.2801    3.7608   -2.4374 N.3     1  LIG11       0.2448
      6 C          -7.4990    1.3811   -3.1672 C.3     1  LIG11      -0.0039
      7 C          -9.2248    3.8727   -5.3539 C.ar    1  LIG11      -0.0313
      8 C          -7.9934    4.8102   -3.2587 C.3     1  LIG11      -0.0234
      9 O          -4.5301    3.1494   -5.2330 O.co2   1  LIG11      -0.5493
     10 O          -5.3563    5.1661   -4.5556 O.co2   1  LIG11      -0.5493
     11 C          -6.1776    4.3977   -1.5711 C.3     1  LIG11       0.0465
     12 C          -6.9527    0.0241   -3.7301 C.3     1  LIG11      -0.0298
     13 C         -10.2375    3.2104   -4.6506 C.ar    1  LIG11      -0.0122
     14 C          -9.3800    4.0713   -6.7557 C.ar    1  LIG11      -0.0124
     15 C          -5.6749    3.4535   -0.4745 C.2     1  LIG11       0.2608
     16 C          -7.7555   -1.1046   -2.9961 C.3     1  LIG11      -0.0479
     17 C          -7.1808   -0.0755   -5.2465 C.3     1  LIG11      -0.0596
     18 C          -5.4500   -0.1305   -3.4396 C.3     1  LIG11      -0.0596
     19 C         -11.3215    2.7353   -5.3617 C.ar    1  LIG11       0.1702
     20 C         -10.5108    3.6219   -7.4475 C.ar    1  LIG11       0.1656
     21 N          -4.4881    3.7693    0.1864 N.am    1  LIG11      -0.2971
     22 O          -6.3559    2.4601   -0.1962 O.2     1  LIG11      -0.2697
     23 C          -7.4474   -2.5528   -3.3972 C.3     1  LIG11      -0.0554
     24 C         -11.4558    2.9288   -6.7170 C.ar    1  LIG11       0.2075
     25 O         -12.3565    2.0296   -4.8286 O.3     1  LIG11      -0.4525
     26 O         -10.7462    3.7804   -8.7811 O.3     1  LIG11      -0.4913
     27 C          -3.6089    4.8885   -0.2090 C.3     1  LIG11       0.0148
     28 C          -3.9075    2.7326    1.0494 C.3     1  LIG11       0.0148
     29 C          -8.2396   -3.5394   -2.5490 C.3     1  LIG11      -0.0653
     30 O         -12.6020    2.3700   -7.1996 O.3     1  LIG11      -0.4489
     31 C         -13.1206    1.7358   -6.0163 C.3     1  LIG11       0.2334
     32 C          -9.9874    4.7861   -9.4440 C.3     1  LIG11       0.0790
     33 C          -3.1289    5.7389    0.9710 C.3     1  LIG11      -0.0374
     34 C          -4.6547    2.4928    2.3679 C.3     1  LIG11      -0.0374
     35 C          -2.4065    7.0186    0.5433 C.3     1  LIG11      -0.0545
     36 C          -4.7225    3.7257    3.2658 C.3     1  LIG11      -0.0545
     37 C          -1.1249    6.7622   -0.2330 C.3     1  LIG11      -0.0652
     38 C          -5.3944    3.4160    4.5945 C.3     1  LIG11      -0.0652
@<TRIPOS>BOND
     1     1     2    1
     2     1     3    1
     3     1     4    1
     4     2     5    1
     5     2     6    1
     6     3     8    1
     7     3     7    1
     8     4    10   ar
     9     4     9   ar
    10     5     8    1
    11     5    11    1
    12     6    12    1
    13     7    14   ar
    14     7    13   ar
    15    11    15    1
    16    12    18    1
    17    12    17    1
    18    12    16    1
    19    13    19   ar
    20    14    20   ar
    21    15    22    2
    22    15    21   am
    23    16    23    1
    24    19    25    1
    25    19    24   ar
    26    20    24   ar
    27    20    26    1
    28    21    28    1
    29    21    27    1
    30    23    29    1
    31    24    30    1
    32    25    31    1
    33    26    32    1
    34    27    33    1
    35    28    34    1
    36    30    31    1
    37    33    35    1
    38    34    36    1
    39    35    37    1
    40    36    38    1
@<TRIPOS>MOLECULE
../1EDN/PCA1_17-21.pdb
 47 48 0 0 0
SMALL
GASTEIGER

@<TRIPOS>ATOM
      1  N         -4.6470   -0.3680   -1.6750 N.3    17  LEU17      -0.1231
      2  CA        -5.8920   -0.8550   -2.2480 C.3    17  LEU17       0.1693
      3  CB        -6.0770   -2.3450   -1.7480 C.3    17  LEU17       0.0284
      4  CG        -7.4170   -3.0590   -2.1890 C.3    17  LEU17       0.0019
      5  CD1       -7.4920   -3.1930   -3.7220 C.3    17  LEU17       0.0001
      6  CD2       -7.5340   -4.4610   -1.6100 C.3    17  LEU17       0.0001
      7  C         -7.0080    0.1010   -1.8270 C.2    17  LEU17       0.2592
      8  O         -7.6220    0.6590   -2.7680 O.2    17  LEU17      -0.2718
      9  N         -7.2890    0.1920   -0.5460 N.am   18  ASP18      -0.1960
     10  CA        -8.2730    1.1070    0.1120 C.3    18  ASP18       0.1840
     11  CB        -8.8290    0.4520    1.4200 C.3    18  ASP18       0.1450
     12  CG        -9.9140    1.2760    2.0640 C.2    18  ASP18       0.3671
     13  OD1      -10.8560    1.7240    1.3430 O.co2  18  ASP18      -0.2456
     14  OD2       -9.7710    1.5960    3.2830 O.co2  18  ASP18      -0.2456
     15  C         -7.6270    2.4530    0.4740 C.2    18  ASP18       0.2622
     16  O         -8.0770    3.4620   -0.0480 O.2    18  ASP18      -0.2715
     17  N         -6.6010    2.4770    1.3340 N.am   19  ILE19      -0.1963
     18  CA        -6.1660    3.6270    2.0790 C.3    19  ILE19       0.1727
     19  CB        -5.0730    3.3500    3.1520 C.3    19  ILE19       0.0290
     20  CG2       -4.5850    4.5470    3.9530 C.3    19  ILE19       0.0023
     21  CG1       -5.6210    2.1420    3.9730 C.3    19  ILE19       0.0022
     22  CD1       -6.7460    2.5740    4.8760 C.3    19  ILE19       0.0001
     23  C         -5.6740    4.7260    1.1170 C.2    19  ILE19       0.2616
     24  O         -5.9640    5.8590    1.4260 O.2    19  ILE19      -0.2715
     25  N         -4.8940    4.3400    0.1060 N.am   20  ILE20      -0.1963
     26  CA        -4.3700    5.1770   -0.9560 C.3    20  ILE20       0.1727
     27  CB        -2.8480    5.4620   -0.8180 C.3    20  ILE20       0.0290
     28  CG2       -2.5210    6.1670    0.5290 C.3    20  ILE20       0.0023
     29  CG1       -1.9270    4.2500   -0.9510 C.3    20  ILE20       0.0022
     30  CD1       -0.4520    4.4090   -1.0350 C.3    20  ILE20       0.0001
     31  C         -4.8260    4.7960   -2.3980 C.2    20  ILE20       0.2617
     32  O         -4.8210    3.6210   -2.7490 O.2    20  ILE20      -0.2715
     33  N         -5.1950    5.7710   -3.1960 N.am   21  TRP21      -0.1941
     34  CA        -5.6960    5.8160   -4.5740 C.3    21  TRP21       0.1982
     35  CB        -7.1930    6.0870   -4.6010 C.3    21  TRP21       0.0394
     36  CG        -8.1480    4.9210   -4.3560 C.3    21  TRP21       0.0475
     37  CD1       -8.4270    4.3170   -3.1580 C.3    21  TRP21       0.1166
     38  NE1       -9.4680    3.4340   -3.3480 N.pl3  21  TRP21      -0.2376
     39  CE2      -10.0400    3.5420   -4.5600 C.ar   21  TRP21       0.0614
     40  CZ2      -11.2420    2.9770   -5.0990 C.ar   21  TRP21       0.0158
     41  CH2      -11.3060    3.0240   -6.5170 C.ar   21  TRP21       0.0013
     42  CZ3      -10.3640    3.7270   -7.2650 C.ar   21  TRP21      -0.0002
     43  CE3       -9.2810    4.3830   -6.7050 C.ar   21  TRP21      -0.0030
     44  CD2       -9.0950    4.3440   -5.3390 C.ar   21  TRP21      -0.0059
     45  C         -4.8510    6.8160   -5.3910 C.2    21  TRP21       0.3842
     46  O         -5.0400    8.0490   -5.1500 O.co2  21  TRP21      -0.2437
     47  OXT       -3.9720    6.3760   -6.1010 O.co2  21  TRP21      -0.2437
@<TRIPOS>BOND
     1    42    43   ar
     2    42    41   ar
     3    43    44   ar
     4    41    40   ar
     5    47    45   ar
     6    45    46   ar
     7    45    34    1
     8    44    39   ar
     9    44    36    1
    10    40    39   ar
    11    35    34    1
    12    35    36    1
    13    34    33    1
    14    39    38    1
    15    36    37    1
    16     5     4    1
    17    38    37    1
    18    33    31   am
    19     8     7    2
    20    32    31    2
    21    31    26    1
    22     2     7    1
    23     2     3    1
    24     2     1    1
    25     4     3    1
    26     4     6    1
    27     7     9   am
    28    30    29    1
    29    26    27    1
    30    26    25    1
    31    29    27    1
    32    27    28    1
    33     9    10    1
    34    16    15    2
    35    25    23   am
    36    10    15    1
    37    10    11    1
    38    15    17   am
    39    23    24    2
    40    23    18    1
    41    17    18    1
    42    13    12   ar
    43    11    12    1
    44    12    14   ar
    45    18    19    1
    46    19    20    1
    47    19    21    1
    48    21    22    1
