@<TRIPOS>MOLECULE
../1EDN/PCA1_17-21_NOBACKBONE.pdb
 26 23 0 0 0
SMALL
GASTEIGER

@<TRIPOS>ATOM
      1  CB        -6.0770   -2.3450   -1.7480 C.3    17  LEU17       0.0000
      2  CG        -7.4170   -3.0590   -2.1890 C.3    17  LEU17       0.0000
      3  CD1       -7.4920   -3.1930   -3.7220 C.3    17  LEU17       0.0000
      4  CD2       -7.5340   -4.4610   -1.6100 C.3    17  LEU17       0.0000
      5  CB        -8.8290    0.4520    1.4200 C.3    18  ASP18       0.1258
      6  CG        -9.9140    1.2760    2.0640 C.2    18  ASP18       0.3654
      7  OD1      -10.8560    1.7240    1.3430 O.co2  18  ASP18      -0.2456
      8  OD2       -9.7710    1.5960    3.2830 O.co2  18  ASP18      -0.2456
      9  CB        -5.0730    3.3500    3.1520 C.3    19  ILE19       0.0000
     10  CG2       -4.5850    4.5470    3.9530 C.3    19  ILE19       0.0000
     11  CG1       -5.6210    2.1420    3.9730 C.3    19  ILE19       0.0000
     12  CD1       -6.7460    2.5740    4.8760 C.3    19  ILE19       0.0000
     13  CB        -2.8480    5.4620   -0.8180 C.3    20  ILE20       0.0000
     14  CG2       -2.5210    6.1670    0.5290 C.3    20  ILE20       0.0000
     15  CG1       -1.9270    4.2500   -0.9510 C.3    20  ILE20       0.0000
     16  CD1       -0.4520    4.4090   -1.0350 C.3    20  ILE20       0.0000
     17  CB        -7.1930    6.0870   -4.6010 C.3    21  TRP21       0.0066
     18  CG        -8.1480    4.9210   -4.3560 C.3    21  TRP21       0.0452
     19  CD1       -8.4270    4.3170   -3.1580 C.3    21  TRP21       0.1165
     20  NE1       -9.4680    3.4340   -3.3480 N.pl3  21  TRP21      -0.2376
     21  CE2      -10.0400    3.5420   -4.5600 C.ar   21  TRP21       0.0614
     22  CZ2      -11.2420    2.9770   -5.0990 C.ar   21  TRP21       0.0158
     23  CH2      -11.3060    3.0240   -6.5170 C.ar   21  TRP21       0.0013
     24  CZ3      -10.3640    3.7270   -7.2650 C.ar   21  TRP21      -0.0002
     25  CE3       -9.2810    4.3830   -6.7050 C.ar   21  TRP21      -0.0030
     26  CD2       -9.0950    4.3440   -5.3390 C.ar   21  TRP21      -0.0059
@<TRIPOS>BOND
     1    24    25   ar
     2    24    23   ar
     3    25    26   ar
     4    23    22   ar
     5    26    21   ar
     6    26    18    1
     7    22    21   ar
     8    17    18    1
     9    21    20    1
    10    18    19    1
    11     3     2    1
    12    20    19    1
    13     2     1    1
    14     2     4    1
    15    16    15    1
    16    15    13    1
    17    13    14    1
    18     7     6   ar
    19     5     6    1
    20     6     8   ar
    21     9    10    1
    22     9    11    1
    23    11    12    1
@<TRIPOS>MOLECULE
11672244
 53 58 0 0 0
SMALL
GASTEIGER

@<TRIPOS>ATOM
      1 O          -5.6529    4.7919   -1.5539 O.3     1  LIG11      -0.4607
      2 O          -8.8012    2.0811    4.1488 O.2     1  LIG11      -0.2968
      3 O           0.5065    6.2789    0.0949 O.co2   1  LIG11      -0.5492
      4 O           0.0834    8.2082   -1.0202 O.co2   1  LIG11      -0.5492
      5 O          -5.4779    6.3526   -3.2467 O.2     1  LIG11      -0.2456
      6 O         -12.5148    3.9088   -4.3412 O.3     1  LIG11      -0.5067
      7 O          -6.1607    2.7338   -5.0658 O.2     1  LIG11      -0.2705
      8 O          -3.6135    2.4084   -9.4267 O.co2   1  LIG11      -0.5452
      9 O          -3.8150    4.6110  -10.0096 O.co2   1  LIG11      -0.5452
     10 N          -7.5506    3.4283   -6.8075 N.am    1  LIG11      -0.2815
     11 C          -4.0141    5.3968    1.0723 C.3     1  LIG11      -0.0160
     12 C          -4.1645    3.9224    1.5972 C.3     1  LIG11      -0.0256
     13 C          -3.3796    5.3278   -0.4387 C.3     1  LIG11       0.0318
     14 C          -5.0861    3.6853    2.8804 C.3     1  LIG11      -0.0243
     15 C          -6.4433    4.4321    2.6314 C.3     1  LIG11      -0.0235
     16 C          -5.3735    6.1468    1.1128 C.3     1  LIG11      -0.0461
     17 C          -2.0693    4.4886   -0.4202 C.2     1  LIG11      -0.0596
     18 C          -1.1204    4.6800   -1.6214 C.3     1  LIG11      -0.0080
     19 C          -6.1903    5.9340    2.3876 C.3     1  LIG11      -0.0483
     20 C          -3.1060    6.7776   -0.9447 C.3     1  LIG11      -0.0392
     21 C          -2.7771    3.2409    1.6728 C.3     1  LIG11      -0.0306
     22 C          -0.8198    6.1664   -1.9198 C.3     1  LIG11       0.0167
     23 C          -7.6073    4.1324    3.6370 C.3     1  LIG11       0.0267
     24 C          -5.4116    2.1658    2.9681 C.3     1  LIG11      -0.0404
     25 C          -2.1672    6.8948   -2.1474 C.3     1  LIG11      -0.0408
     26 C          -3.0533    6.2088    2.0072 C.3     1  LIG11      -0.0584
     27 C          -1.8505    3.5685    0.5413 C.2     1  LIG11      -0.0835
     28 C          -4.2440    4.5548   -1.5102 C.3     1  LIG11       0.1025
     29 C          -4.3992    4.0989    4.2055 C.3     1  LIG11      -0.0590
     30 C           0.1447    3.7849   -1.6555 C.3     1  LIG11      -0.0405
     31 C           0.0094    6.2873   -3.2243 C.3     1  LIG11      -0.0412
     32 C          -6.4516    1.8069    4.0188 C.3     1  LIG11       0.0069
     33 C           0.9795    3.9288   -2.9496 C.3     1  LIG11      -0.0343
     34 C          -7.7178    2.6190    3.8961 C.2     1  LIG11       0.1392
     35 C           1.2666    5.4161   -3.2292 C.3     1  LIG11      -0.0470
     36 C          -7.4912    4.8438    4.9933 C.3     1  LIG11      -0.0528
     37 C          -8.9524    4.5782    3.0026 C.3     1  LIG11      -0.0528
     38 C          -0.0041    6.9566   -0.8415 C.2     1  LIG11       0.0485
     39 C           2.3175    3.1867   -2.7646 C.3     1  LIG11      -0.0598
     40 C           0.2501    3.2782   -4.1442 C.3     1  LIG11      -0.0598
     41 C          -6.0825    5.4907   -2.6325 C.2     1  LIG11       0.3320
     42 C          -7.3888    4.9203   -3.0199 C.2     1  LIG11       0.0231
     43 C          -7.7676    5.0360   -4.3007 C.2     1  LIG11      -0.0460
     44 C          -8.8942    4.2962   -4.8894 C.ar    1  LIG11      -0.0001
     45 C          -8.7691    3.6138   -6.1205 C.ar    1  LIG11       0.0411
     46 C         -10.1617    4.3960   -4.2893 C.ar    1  LIG11      -0.0113
     47 C          -9.9146    3.1031   -6.7489 C.ar    1  LIG11      -0.0364
     48 C         -11.2756    3.8335   -4.9078 C.ar    1  LIG11       0.1175
     49 C         -11.1631    3.1963   -6.1345 C.ar    1  LIG11      -0.0184
     50 C          -6.3455    3.0663   -6.2292 C.2     1  LIG11       0.2411
     51 C          -5.2760    2.8987   -7.2432 C.2     1  LIG11       0.0021
     52 C          -5.0522    3.8210   -8.1919 C.2     1  LIG11      -0.0344
     53 C          -4.0356    3.5903   -9.2996 C.2     1  LIG11       0.0647
@<TRIPOS>BOND
     1     1    41    1
     2     1    28    1
     3     2    34    2
     4     3    38   ar
     5     4    38   ar
     6     5    41    2
     7     6    48    1
     8     7    50    2
     9     8    53   ar
    10     9    53   ar
    11    10    45    1
    12    10    50   am
    13    11    16    1
    14    11    12    1
    15    11    26    1
    16    11    13    1
    17    12    14    1
    18    13    20    1
    19    13    17    1
    20    13    28    1
    21    14    15    1
    22    14    24    1
    23    14    29    1
    24    15    19    1
    25    15    23    1
    26    16    19    1
    27    17    18    1
    28    17    27    2
    29    18    30    1
    30    18    22    1
    31    20    25    1
    32    21    27    1
    33    21    12    1
    34    22    31    1
    35    22    25    1
    36    22    38    1
    37    23    34    1
    38    23    37    1
    39    23    36    1
    40    24    32    1
    41    30    33    1
    42    31    35    1
    43    32    34    1
    44    33    35    1
    45    33    40    1
    46    33    39    1
    47    41    42    1
    48    42    43    2
    49    43    44    1
    50    44    46   ar
    51    44    45   ar
    52    45    47   ar
    53    46    48   ar
    54    47    49   ar
    55    48    49   ar
    56    50    51    1
    57    51    52    2
    58    52    53    1
@<TRIPOS>MOLECULE
../1EDN/PCA1_17-21.pdb
 47 48 0 0 0
SMALL
GASTEIGER

@<TRIPOS>ATOM
      1  N         -4.6470   -0.3680   -1.6750 N.3    17  LEU17      -0.1231
      2  CA        -5.8920   -0.8550   -2.2480 C.3    17  LEU17       0.1693
      3  CB        -6.0770   -2.3450   -1.7480 C.3    17  LEU17       0.0284
      4  CG        -7.4170   -3.0590   -2.1890 C.3    17  LEU17       0.0019
      5  CD1       -7.4920   -3.1930   -3.7220 C.3    17  LEU17       0.0001
      6  CD2       -7.5340   -4.4610   -1.6100 C.3    17  LEU17       0.0001
      7  C         -7.0080    0.1010   -1.8270 C.2    17  LEU17       0.2592
      8  O         -7.6220    0.6590   -2.7680 O.2    17  LEU17      -0.2718
      9  N         -7.2890    0.1920   -0.5460 N.am   18  ASP18      -0.1960
     10  CA        -8.2730    1.1070    0.1120 C.3    18  ASP18       0.1840
     11  CB        -8.8290    0.4520    1.4200 C.3    18  ASP18       0.1450
     12  CG        -9.9140    1.2760    2.0640 C.2    18  ASP18       0.3671
     13  OD1      -10.8560    1.7240    1.3430 O.co2  18  ASP18      -0.2456
     14  OD2       -9.7710    1.5960    3.2830 O.co2  18  ASP18      -0.2456
     15  C         -7.6270    2.4530    0.4740 C.2    18  ASP18       0.2622
     16  O         -8.0770    3.4620   -0.0480 O.2    18  ASP18      -0.2715
     17  N         -6.6010    2.4770    1.3340 N.am   19  ILE19      -0.1963
     18  CA        -6.1660    3.6270    2.0790 C.3    19  ILE19       0.1727
     19  CB        -5.0730    3.3500    3.1520 C.3    19  ILE19       0.0290
     20  CG2       -4.5850    4.5470    3.9530 C.3    19  ILE19       0.0023
     21  CG1       -5.6210    2.1420    3.9730 C.3    19  ILE19       0.0022
     22  CD1       -6.7460    2.5740    4.8760 C.3    19  ILE19       0.0001
     23  C         -5.6740    4.7260    1.1170 C.2    19  ILE19       0.2616
     24  O         -5.9640    5.8590    1.4260 O.2    19  ILE19      -0.2715
     25  N         -4.8940    4.3400    0.1060 N.am   20  ILE20      -0.1963
     26  CA        -4.3700    5.1770   -0.9560 C.3    20  ILE20       0.1727
     27  CB        -2.8480    5.4620   -0.8180 C.3    20  ILE20       0.0290
     28  CG2       -2.5210    6.1670    0.5290 C.3    20  ILE20       0.0023
     29  CG1       -1.9270    4.2500   -0.9510 C.3    20  ILE20       0.0022
     30  CD1       -0.4520    4.4090   -1.0350 C.3    20  ILE20       0.0001
     31  C         -4.8260    4.7960   -2.3980 C.2    20  ILE20       0.2617
     32  O         -4.8210    3.6210   -2.7490 O.2    20  ILE20      -0.2715
     33  N         -5.1950    5.7710   -3.1960 N.am   21  TRP21      -0.1941
     34  CA        -5.6960    5.8160   -4.5740 C.3    21  TRP21       0.1982
     35  CB        -7.1930    6.0870   -4.6010 C.3    21  TRP21       0.0394
     36  CG        -8.1480    4.9210   -4.3560 C.3    21  TRP21       0.0475
     37  CD1       -8.4270    4.3170   -3.1580 C.3    21  TRP21       0.1166
     38  NE1       -9.4680    3.4340   -3.3480 N.pl3  21  TRP21      -0.2376
     39  CE2      -10.0400    3.5420   -4.5600 C.ar   21  TRP21       0.0614
     40  CZ2      -11.2420    2.9770   -5.0990 C.ar   21  TRP21       0.0158
     41  CH2      -11.3060    3.0240   -6.5170 C.ar   21  TRP21       0.0013
     42  CZ3      -10.3640    3.7270   -7.2650 C.ar   21  TRP21      -0.0002
     43  CE3       -9.2810    4.3830   -6.7050 C.ar   21  TRP21      -0.0030
     44  CD2       -9.0950    4.3440   -5.3390 C.ar   21  TRP21      -0.0059
     45  C         -4.8510    6.8160   -5.3910 C.2    21  TRP21       0.3842
     46  O         -5.0400    8.0490   -5.1500 O.co2  21  TRP21      -0.2437
     47  OXT       -3.9720    6.3760   -6.1010 O.co2  21  TRP21      -0.2437
@<TRIPOS>BOND
     1    42    43   ar
     2    42    41   ar
     3    43    44   ar
     4    41    40   ar
     5    47    45   ar
     6    45    46   ar
     7    45    34    1
     8    44    39   ar
     9    44    36    1
    10    40    39   ar
    11    35    34    1
    12    35    36    1
    13    34    33    1
    14    39    38    1
    15    36    37    1
    16     5     4    1
    17    38    37    1
    18    33    31   am
    19     8     7    2
    20    32    31    2
    21    31    26    1
    22     2     7    1
    23     2     3    1
    24     2     1    1
    25     4     3    1
    26     4     6    1
    27     7     9   am
    28    30    29    1
    29    26    27    1
    30    26    25    1
    31    29    27    1
    32    27    28    1
    33     9    10    1
    34    16    15    2
    35    25    23   am
    36    10    15    1
    37    10    11    1
    38    15    17   am
    39    23    24    2
    40    23    18    1
    41    17    18    1
    42    13    12   ar
    43    11    12    1
    44    12    14   ar
    45    18    19    1
    46    19    20    1
    47    19    21    1
    48    21    22    1
