@<TRIPOS>MOLECULE
../1EDN/PCA1_17-21_NOBACKBONE.pdb
 26 23 0 0 0
SMALL
GASTEIGER

@<TRIPOS>ATOM
      1  CB        -6.0770   -2.3450   -1.7480 C.3    17  LEU17       0.0000
      2  CG        -7.4170   -3.0590   -2.1890 C.3    17  LEU17       0.0000
      3  CD1       -7.4920   -3.1930   -3.7220 C.3    17  LEU17       0.0000
      4  CD2       -7.5340   -4.4610   -1.6100 C.3    17  LEU17       0.0000
      5  CB        -8.8290    0.4520    1.4200 C.3    18  ASP18       0.1258
      6  CG        -9.9140    1.2760    2.0640 C.2    18  ASP18       0.3654
      7  OD1      -10.8560    1.7240    1.3430 O.co2  18  ASP18      -0.2456
      8  OD2       -9.7710    1.5960    3.2830 O.co2  18  ASP18      -0.2456
      9  CB        -5.0730    3.3500    3.1520 C.3    19  ILE19       0.0000
     10  CG2       -4.5850    4.5470    3.9530 C.3    19  ILE19       0.0000
     11  CG1       -5.6210    2.1420    3.9730 C.3    19  ILE19       0.0000
     12  CD1       -6.7460    2.5740    4.8760 C.3    19  ILE19       0.0000
     13  CB        -2.8480    5.4620   -0.8180 C.3    20  ILE20       0.0000
     14  CG2       -2.5210    6.1670    0.5290 C.3    20  ILE20       0.0000
     15  CG1       -1.9270    4.2500   -0.9510 C.3    20  ILE20       0.0000
     16  CD1       -0.4520    4.4090   -1.0350 C.3    20  ILE20       0.0000
     17  CB        -7.1930    6.0870   -4.6010 C.3    21  TRP21       0.0066
     18  CG        -8.1480    4.9210   -4.3560 C.3    21  TRP21       0.0452
     19  CD1       -8.4270    4.3170   -3.1580 C.3    21  TRP21       0.1165
     20  NE1       -9.4680    3.4340   -3.3480 N.pl3  21  TRP21      -0.2376
     21  CE2      -10.0400    3.5420   -4.5600 C.ar   21  TRP21       0.0614
     22  CZ2      -11.2420    2.9770   -5.0990 C.ar   21  TRP21       0.0158
     23  CH2      -11.3060    3.0240   -6.5170 C.ar   21  TRP21       0.0013
     24  CZ3      -10.3640    3.7270   -7.2650 C.ar   21  TRP21      -0.0002
     25  CE3       -9.2810    4.3830   -6.7050 C.ar   21  TRP21      -0.0030
     26  CD2       -9.0950    4.3440   -5.3390 C.ar   21  TRP21      -0.0059
@<TRIPOS>BOND
     1    24    25   ar
     2    24    23   ar
     3    25    26   ar
     4    23    22   ar
     5    26    21   ar
     6    26    18    1
     7    22    21   ar
     8    17    18    1
     9    21    20    1
    10    18    19    1
    11     3     2    1
    12    20    19    1
    13     2     1    1
    14     2     4    1
    15    16    15    1
    16    15    13    1
    17    13    14    1
    18     7     6   ar
    19     5     6    1
    20     6     8   ar
    21     9    10    1
    22     9    11    1
    23    11    12    1
@<TRIPOS>MOLECULE
123882
 66 71 0 0 0
SMALL
GASTEIGER

@<TRIPOS>ATOM
      1 S          -4.4840    3.0370   -6.1704 S.2     3  UNK33      -0.0993
      2 O          -4.6832    4.8953    4.2309 O.2     1  UNK11      -0.2755
      3 O          -9.4798   -1.3966   -2.8870 O.2     4  LEU44      -0.2738
      4 O          -5.9264    4.0558    0.5810 O.2     1  UNK11      -0.2737
      5 O          -8.0117    1.5829   -0.5121 O.2     5  TRP55      -0.2738
      6 O          -9.1248    3.4690    2.4863 O.2     6  ASP66      -0.2738
      7 O          -6.0962    0.8336   -5.0856 O.2     3  UNK33      -0.2734
      8 O          -3.9986    0.5668   -1.1346 O.2     2  ASP22      -0.2737
      9 OD1       -11.7719   -0.4762    1.3481 O.co2   6  ASP66      -0.5497
     10 OD2       -10.9845   -1.4452    3.2676 O.co2   6  ASP66      -0.5497
     11 OD1        -2.2557    2.5655    2.6717 O.co2   2  ASP22      -0.5497
     12 OD2        -0.7031    3.7242    1.4495 O.co2   2  ASP22      -0.5497
     13 N          -3.5752    3.2898    5.4502 N.am    1  UNK11      -0.2984
     14 N          -1.0176    2.2589    6.5806 N.pl3   1  UNK11      -0.3269
     15 N          -7.3088    2.0555    2.5032 N.am    1  UNK11      -0.3020
     16 N          -8.8282    0.7966   -2.8418 N.am    5  TRP55      -0.3022
     17 N          -6.2157    0.2445   -2.9087 N.am    4  LEU44      -0.3022
     18 N         -10.0678    1.4218    0.4837 N.am    6  ASP66      -0.3021
     19 N          -4.4687    2.4392    1.2522 N.am    2  ASP22      -0.3021
     20 N          -4.5908    2.4961   -2.1571 N.am    3  UNK33      -0.2984
     21 NE1       -12.4321    1.8415   -5.5324 N.ar    5  TRP55      -0.3604
     22 C          -3.3915    1.8936    5.8615 C.3     1  UNK11       0.0304
     23 C          -2.4564    4.1865    5.7629 C.3     1  UNK11       0.0304
     24 C          -2.3437    1.7379    6.9778 C.3     1  UNK11       0.0280
     25 C          -1.0844    3.4768    5.7020 C.3     1  UNK11       0.0280
     26 C          -4.5406    3.7109    4.5378 C.2     1  UNK11       0.2179
     27 C          -5.4879    2.6423    4.0157 C.3     1  UNK11       0.0510
     28 C          -6.3093    3.0924    2.8037 C.3     1  UNK11       0.1076
     29 CA         -7.0927   -0.9203   -3.1342 C.3     4  LEU44       0.0997
     30 CB         -6.6349   -2.0507   -2.1915 C.3     4  LEU44      -0.0236
     31 CA         -9.9170    1.2689   -1.9851 C.3     5  TRP55       0.1034
     32 C          -0.0547    1.3480    6.0929 C.ar    1  UNK11       0.0298
     33 CG         -7.2804   -3.4391   -2.3769 C.3     4  LEU44      -0.0446
     34 CB        -10.5041    2.5965   -2.4776 C.3     5  TRP55       0.0013
     35 C          -8.5825   -0.5581   -2.9240 C.2     4  LEU44       0.2340
     36 CA         -9.4695    1.1439    1.7920 C.3     6  ASP66       0.1045
     37 C          -5.5271    3.3031    1.4739 C.2     1  UNK11       0.2344
     38 CG        -11.1208    2.4925   -3.8490 C.ar    5  TRP55      -0.0201
     39 C          -9.2357    1.4429   -0.6112 C.2     5  TRP55       0.2343
     40 C          -8.6425    2.3585    2.2845 C.2     6  ASP66       0.2343
     41 CA         -3.5943    2.6477    0.1008 C.3     2  ASP22       0.1045
     42 CD2        -7.1917   -3.9515   -3.8132 C.3     4  LEU44      -0.0626
     43 CD1        -6.6167   -4.4429   -1.4272 C.3     4  LEU44      -0.0626
     44 C          -4.5304    1.9635   -3.5216 C.3     3  UNK33       0.1311
     45 C          -0.3622    0.0653    5.6152 C.ar    1  UNK11      -0.0407
     46 C           1.2950    1.7392    6.0420 C.ar    1  UNK11      -0.0407
     47 CD2       -10.6773    3.1275   -5.0584 C.ar    5  TRP55       0.0029
     48 C          -5.7234    1.0337   -3.9305 C.2     3  UNK33       0.2390
     49 CB        -10.5200    0.8246    2.8481 C.3     6  ASP66       0.0138
     50 CD1       -12.2202    1.7246   -4.1874 C.ar    5  TRP55       0.0060
     51 CE2       -11.5163    2.7023   -6.0900 C.ar    5  TRP55       0.0467
     52 C          -4.0770    1.7956   -1.0926 C.2     2  ASP22       0.2345
     53 CB         -2.1515    2.2138    0.3694 C.3     2  ASP22       0.0138
     54 C           0.6256   -0.7799    5.0940 C.ar    1  UNK11      -0.0600
     55 C           2.2874    0.8999    5.5232 C.ar    1  UNK11      -0.0600
     56 C          -4.2278    3.1267   -4.4693 C.ar    3  UNK33       0.0189
     57 CE3        -9.6255    4.0124   -5.3782 C.ar    5  TRP55      -0.0523
     58 C           1.9508   -0.3618    5.0458 C.ar    1  UNK11      -0.0616
     59 CZ2       -11.3592    3.1158   -7.4195 C.ar    5  TRP55      -0.0378
     60 CG        -11.1527   -0.4973    2.4540 C.2     6  ASP66       0.0440
     61 CZ3        -9.4556    4.4386   -6.7014 C.ar    5  TRP55      -0.0611
     62 C          -3.5849    4.3215   -4.1606 C.ar    3  UNK33      -0.0493
     63 CH2       -10.3117    3.9954   -7.7066 C.ar    5  TRP55      -0.0598
     64 CG         -1.6482    2.9097    1.6133 C.2     2  ASP22       0.0440
     65 C          -3.3690    5.1609   -5.2916 C.ar    3  UNK33      -0.0544
     66 C          -3.8308    4.5844   -6.4491 C.ar    3  UNK33      -0.0240
@<TRIPOS>BOND
     1     1    56   ar
     2     1    66   ar
     3     2    26    2
     4     3    35    2
     5     4    37    2
     6     5    39    2
     7     6    40    2
     8     7    48    2
     9     8    52    2
    10     9    60   ar
    11    10    60   ar
    12    11    64   ar
    13    12    64   ar
    14    13    22    1
    15    13    23    1
    16    14    24    1
    17    14    25    1
    18    14    32    1
    19    15    28    1
    20    15    40   am
    21    16    35   am
    22    16    31    1
    23    17    48   am
    24    17    29    1
    25    18    39   am
    26    18    36    1
    27    19    37   am
    28    19    41    1
    29    20    52   am
    30    20    44    1
    31    21    50   ar
    32    21    51   ar
    33    22    24    1
    34    23    25    1
    35    26    27    1
    36    26    13   am
    37    28    37    1
    38    28    27    1
    39    29    35    1
    40    29    30    1
    41    30    33    1
    42    31    39    1
    43    31    34    1
    44    32    45   ar
    45    32    46   ar
    46    33    43    1
    47    33    42    1
    48    34    38    1
    49    36    40    1
    50    36    49    1
    51    38    47   ar
    52    38    50   ar
    53    41    52    1
    54    41    53    1
    55    44    48    1
    56    44    56    1
    57    45    54   ar
    58    46    55   ar
    59    47    57   ar
    60    47    51   ar
    61    49    60    1
    62    51    59   ar
    63    53    64    1
    64    54    58   ar
    65    55    58   ar
    66    56    62   ar
    67    57    61   ar
    68    59    63   ar
    69    61    63   ar
    70    62    65   ar
    71    65    66   ar
@<TRIPOS>MOLECULE
../1EDN/PCA1_17-21.pdb
 47 48 0 0 0
SMALL
GASTEIGER

@<TRIPOS>ATOM
      1  N         -4.6470   -0.3680   -1.6750 N.3    17  LEU17      -0.1231
      2  CA        -5.8920   -0.8550   -2.2480 C.3    17  LEU17       0.1693
      3  CB        -6.0770   -2.3450   -1.7480 C.3    17  LEU17       0.0284
      4  CG        -7.4170   -3.0590   -2.1890 C.3    17  LEU17       0.0019
      5  CD1       -7.4920   -3.1930   -3.7220 C.3    17  LEU17       0.0001
      6  CD2       -7.5340   -4.4610   -1.6100 C.3    17  LEU17       0.0001
      7  C         -7.0080    0.1010   -1.8270 C.2    17  LEU17       0.2592
      8  O         -7.6220    0.6590   -2.7680 O.2    17  LEU17      -0.2718
      9  N         -7.2890    0.1920   -0.5460 N.am   18  ASP18      -0.1960
     10  CA        -8.2730    1.1070    0.1120 C.3    18  ASP18       0.1840
     11  CB        -8.8290    0.4520    1.4200 C.3    18  ASP18       0.1450
     12  CG        -9.9140    1.2760    2.0640 C.2    18  ASP18       0.3671
     13  OD1      -10.8560    1.7240    1.3430 O.co2  18  ASP18      -0.2456
     14  OD2       -9.7710    1.5960    3.2830 O.co2  18  ASP18      -0.2456
     15  C         -7.6270    2.4530    0.4740 C.2    18  ASP18       0.2622
     16  O         -8.0770    3.4620   -0.0480 O.2    18  ASP18      -0.2715
     17  N         -6.6010    2.4770    1.3340 N.am   19  ILE19      -0.1963
     18  CA        -6.1660    3.6270    2.0790 C.3    19  ILE19       0.1727
     19  CB        -5.0730    3.3500    3.1520 C.3    19  ILE19       0.0290
     20  CG2       -4.5850    4.5470    3.9530 C.3    19  ILE19       0.0023
     21  CG1       -5.6210    2.1420    3.9730 C.3    19  ILE19       0.0022
     22  CD1       -6.7460    2.5740    4.8760 C.3    19  ILE19       0.0001
     23  C         -5.6740    4.7260    1.1170 C.2    19  ILE19       0.2616
     24  O         -5.9640    5.8590    1.4260 O.2    19  ILE19      -0.2715
     25  N         -4.8940    4.3400    0.1060 N.am   20  ILE20      -0.1963
     26  CA        -4.3700    5.1770   -0.9560 C.3    20  ILE20       0.1727
     27  CB        -2.8480    5.4620   -0.8180 C.3    20  ILE20       0.0290
     28  CG2       -2.5210    6.1670    0.5290 C.3    20  ILE20       0.0023
     29  CG1       -1.9270    4.2500   -0.9510 C.3    20  ILE20       0.0022
     30  CD1       -0.4520    4.4090   -1.0350 C.3    20  ILE20       0.0001
     31  C         -4.8260    4.7960   -2.3980 C.2    20  ILE20       0.2617
     32  O         -4.8210    3.6210   -2.7490 O.2    20  ILE20      -0.2715
     33  N         -5.1950    5.7710   -3.1960 N.am   21  TRP21      -0.1941
     34  CA        -5.6960    5.8160   -4.5740 C.3    21  TRP21       0.1982
     35  CB        -7.1930    6.0870   -4.6010 C.3    21  TRP21       0.0394
     36  CG        -8.1480    4.9210   -4.3560 C.3    21  TRP21       0.0475
     37  CD1       -8.4270    4.3170   -3.1580 C.3    21  TRP21       0.1166
     38  NE1       -9.4680    3.4340   -3.3480 N.pl3  21  TRP21      -0.2376
     39  CE2      -10.0400    3.5420   -4.5600 C.ar   21  TRP21       0.0614
     40  CZ2      -11.2420    2.9770   -5.0990 C.ar   21  TRP21       0.0158
     41  CH2      -11.3060    3.0240   -6.5170 C.ar   21  TRP21       0.0013
     42  CZ3      -10.3640    3.7270   -7.2650 C.ar   21  TRP21      -0.0002
     43  CE3       -9.2810    4.3830   -6.7050 C.ar   21  TRP21      -0.0030
     44  CD2       -9.0950    4.3440   -5.3390 C.ar   21  TRP21      -0.0059
     45  C         -4.8510    6.8160   -5.3910 C.2    21  TRP21       0.3842
     46  O         -5.0400    8.0490   -5.1500 O.co2  21  TRP21      -0.2437
     47  OXT       -3.9720    6.3760   -6.1010 O.co2  21  TRP21      -0.2437
@<TRIPOS>BOND
     1    42    43   ar
     2    42    41   ar
     3    43    44   ar
     4    41    40   ar
     5    47    45   ar
     6    45    46   ar
     7    45    34    1
     8    44    39   ar
     9    44    36    1
    10    40    39   ar
    11    35    34    1
    12    35    36    1
    13    34    33    1
    14    39    38    1
    15    36    37    1
    16     5     4    1
    17    38    37    1
    18    33    31   am
    19     8     7    2
    20    32    31    2
    21    31    26    1
    22     2     7    1
    23     2     3    1
    24     2     1    1
    25     4     3    1
    26     4     6    1
    27     7     9   am
    28    30    29    1
    29    26    27    1
    30    26    25    1
    31    29    27    1
    32    27    28    1
    33     9    10    1
    34    16    15    2
    35    25    23   am
    36    10    15    1
    37    10    11    1
    38    15    17   am
    39    23    24    2
    40    23    18    1
    41    17    18    1
    42    13    12   ar
    43    11    12    1
    44    12    14   ar
    45    18    19    1
    46    19    20    1
    47    19    21    1
    48    21    22    1
