@<TRIPOS>MOLECULE
../1EDN/PCA2_17-21_NOBACKBONE.pdb
 26 23 0 0 0
SMALL
GASTEIGER

@<TRIPOS>ATOM
      1  CB        -5.9860   -1.2020   -0.4580 C.3    17  LEU17       0.0000
      2  CG        -7.1280   -2.2100   -0.5390 C.3    17  LEU17       0.0000
      3  CD1       -6.7120   -3.3620   -1.4700 C.3    17  LEU17       0.0000
      4  CD2       -7.4980   -2.5610    0.9130 C.3    17  LEU17       0.0000
      5  CB        -9.6810    1.0560   -1.6740 C.3    18  ASP18       0.1258
      6  CG       -11.0010    1.6360   -2.1090 C.2    18  ASP18       0.3654
      7  OD1      -11.5960    2.3310   -1.2790 O.co2  18  ASP18      -0.2456
      8  OD2      -11.5460    1.2700   -3.1630 O.co2  18  ASP18      -0.2456
      9  CB        -8.4260    4.8620    1.7600 C.3    19  ILE19       0.0000
     10  CG2       -7.7310    6.0060    2.5190 C.3    19  ILE19       0.0000
     11  CG1       -9.9240    4.5740    2.2500 C.3    19  ILE19       0.0000
     12  CD1      -10.9740    5.6950    2.0110 C.3    19  ILE19       0.0000
     13  CB        -3.5230    4.9310   -0.1080 C.3    20  ILE20       0.0000
     14  CG2       -2.1210    5.5060   -0.7390 C.3    20  ILE20       0.0000
     15  CG1       -3.5940    5.4760    1.3470 C.3    20  ILE20       0.0000
     16  CD1       -2.3570    5.1940    2.2260 C.3    20  ILE20       0.0000
     17  CB        -6.6210    3.8650   -5.0310 C.3    21  TRP21       0.0327
     18  CG        -6.7890    3.3770   -6.4480 C.ar   21  TRP21      -0.0013
     19  CD1       -7.1340    4.1960   -7.4760 C.ar   21  TRP21       0.0946
     20  NE1       -7.1740    3.4060   -8.6160 N.ar   21  TRP21      -0.2442
     21  CE2       -6.9360    2.0750   -8.3350 C.ar   21  TRP21       0.0810
     22  CZ2       -6.8300    1.0510   -9.2060 C.ar   21  TRP21       0.0191
     23  CH2       -6.3330   -0.2010   -8.7710 C.ar   21  TRP21       0.0015
     24  CZ3       -5.9560   -0.2520   -7.3640 C.ar   21  TRP21       0.0001
     25  CE3       -6.0150    0.8940   -6.5860 C.ar   21  TRP21       0.0012
     26  CD2       -6.6320    2.0560   -6.9830 C.ar   21  TRP21       0.0152
@<TRIPOS>BOND
     1    22    23   ar
     2    22    21   ar
     3    23    24   ar
     4    20    21   ar
     5    20    19   ar
     6    21    26   ar
     7    19    18   ar
     8    24    25   ar
     9    26    25   ar
    10    26    18   ar
    11    18    17    1
    12     8     6   ar
    13     6     5    1
    14     6     7   ar
    15     3     2    1
    16    14    13    1
    17     2     1    1
    18     2     4    1
    19    13    15    1
    20    15    16    1
    21     9    11    1
    22     9    10    1
    23    12    11    1
@<TRIPOS>MOLECULE
11672244
 53 58 0 0 0
SMALL
GASTEIGER

@<TRIPOS>ATOM
      1 O          -6.9268    2.2839   -1.4358 O.3     1  LIG11      -0.4607
      2 O          -8.8396   -4.2903   -1.6926 O.2     1  LIG11      -0.2968
      3 O          -3.1007    4.5014    3.7122 O.co2   1  LIG11      -0.5492
      4 O          -1.8267    3.5132    2.1139 O.co2   1  LIG11      -0.5492
      5 O          -5.9305    4.0310   -2.5747 O.2     1  LIG11      -0.2456
      6 O          -7.5143    3.1458   -9.2385 O.3     1  LIG11      -0.5067
      7 O          -4.2671   -2.4234   -5.0590 O.2     1  LIG11      -0.2705
      8 O          -2.3655   -3.7779   -9.6811 O.co2   1  LIG11      -0.5452
      9 O          -2.3049   -1.4956   -9.6060 O.co2   1  LIG11      -0.5452
     10 N          -5.1794   -0.4475   -5.6616 N.am    1  LIG11      -0.2815
     11 C          -5.8440    0.8046    1.1522 C.3     1  LIG11      -0.0160
     12 C          -5.5124   -0.0875   -0.1021 C.3     1  LIG11      -0.0256
     13 C          -5.6479    2.3886    0.7708 C.3     1  LIG11       0.0318
     14 C          -5.9775   -1.6183   -0.0690 C.3     1  LIG11      -0.0243
     15 C          -7.4803   -1.6479    0.3905 C.3     1  LIG11      -0.0235
     16 C          -7.2920    0.5316    1.6319 C.3     1  LIG11      -0.0461
     17 C          -4.2862    2.6087    0.0703 C.2     1  LIG11      -0.0596
     18 C          -3.7681    4.0644    0.0306 C.3     1  LIG11      -0.0080
     19 C          -7.6453   -0.9489    1.7539 C.3     1  LIG11      -0.0483
     20 C          -5.7227    3.2459    2.0849 C.3     1  LIG11      -0.0392
     21 C          -4.0556    0.1492   -0.5515 C.3     1  LIG11      -0.0306
     22 C          -3.7800    4.7469    1.4201 C.3     1  LIG11       0.0167
     23 C          -8.2265   -3.0183    0.2778 C.3     1  LIG11       0.0267
     24 C          -5.9450   -2.1719   -1.5267 C.3     1  LIG11      -0.0404
     25 C          -5.2287    4.6887    1.9584 C.3     1  LIG11      -0.0408
     26 C          -4.8882    0.4303    2.3317 C.3     1  LIG11      -0.0584
     27 C          -3.6180    1.5841   -0.4984 C.2     1  LIG11      -0.0835
     28 C          -6.7754    2.9670   -0.1773 C.3     1  LIG11       0.1025
     29 C          -5.0548   -2.5089    0.7958 C.3     1  LIG11      -0.0590
     30 C          -2.4616    4.3138   -0.7633 C.3     1  LIG11      -0.0405
     31 C          -3.3710    6.2368    1.2982 C.3     1  LIG11      -0.0412
     32 C          -6.5807   -3.5470   -1.6944 C.3     1  LIG11       0.0069
     33 C          -2.0673    5.8061   -0.8691 C.3     1  LIG11      -0.0343
     34 C          -7.9731   -3.6290   -1.1120 C.2     1  LIG11       0.1392
     35 C          -2.0661    6.4532    0.5288 C.3     1  LIG11      -0.0470
     36 C          -7.8488   -4.0568    1.3433 C.3     1  LIG11      -0.0528
     37 C          -9.7562   -2.7783    0.4013 C.3     1  LIG11      -0.0528
     38 C          -2.8130    4.1877    2.5177 C.2     1  LIG11       0.0485
     39 C          -0.6505    5.9061   -1.4674 C.3     1  LIG11      -0.0598
     40 C          -3.0260    6.5583   -1.8155 C.3     1  LIG11      -0.0598
     41 C          -6.4223    2.9141   -2.5233 C.2     1  LIG11       0.3320
     42 C          -6.6397    2.0671   -3.7148 C.2     1  LIG11       0.0231
     43 C          -5.8634    2.2905   -4.7852 C.2     1  LIG11      -0.0460
     44 C          -6.1407    1.7477   -6.1212 C.ar    1  LIG11      -0.0001
     45 C          -5.7872    0.4572   -6.5590 C.ar    1  LIG11       0.0411
     46 C          -6.7222    2.6548   -7.0276 C.ar    1  LIG11      -0.0113
     47 C          -6.0921    0.0871   -7.8794 C.ar    1  LIG11      -0.0364
     48 C          -6.9753    2.2736   -8.3398 C.ar    1  LIG11       0.1175
     49 C          -6.6789    0.9917   -8.7676 C.ar    1  LIG11      -0.0184
     50 C          -4.4070   -1.5553   -5.9175 C.2     1  LIG11       0.2411
     51 C          -3.6600   -1.5736   -7.1978 C.2     1  LIG11       0.0021
     52 C          -3.3152   -2.7030   -7.8284 C.2     1  LIG11      -0.0344
     53 C          -2.5808   -2.6466   -9.1640 C.2     1  LIG11       0.0647
@<TRIPOS>BOND
     1     1    41    1
     2     1    28    1
     3     2    34    2
     4     3    38   ar
     5     4    38   ar
     6     5    41    2
     7     6    48    1
     8     7    50    2
     9     8    53   ar
    10     9    53   ar
    11    10    45    1
    12    10    50   am
    13    11    16    1
    14    11    12    1
    15    11    26    1
    16    11    13    1
    17    12    14    1
    18    13    20    1
    19    13    17    1
    20    13    28    1
    21    14    15    1
    22    14    24    1
    23    14    29    1
    24    15    19    1
    25    15    23    1
    26    16    19    1
    27    17    18    1
    28    17    27    2
    29    18    30    1
    30    18    22    1
    31    20    25    1
    32    21    27    1
    33    21    12    1
    34    22    31    1
    35    22    25    1
    36    22    38    1
    37    23    34    1
    38    23    37    1
    39    23    36    1
    40    24    32    1
    41    30    33    1
    42    31    35    1
    43    32    34    1
    44    33    35    1
    45    33    40    1
    46    33    39    1
    47    41    42    1
    48    42    43    2
    49    43    44    1
    50    44    46   ar
    51    44    45   ar
    52    45    47   ar
    53    46    48   ar
    54    47    49   ar
    55    48    49   ar
    56    50    51    1
    57    51    52    2
    58    52    53    1
@<TRIPOS>MOLECULE
../1EDN/PCA2_17-21.pdb
 47 48 0 0 0
SMALL
GASTEIGER

@<TRIPOS>ATOM
      1  N         -4.4680    0.3970   -1.5420 N.3    17  LEU17      -0.1231
      2  CA        -5.5730   -0.5090   -1.8150 C.3    17  LEU17       0.1693
      3  CB        -5.9860   -1.2020   -0.4580 C.3    17  LEU17       0.0284
      4  CG        -7.1280   -2.2100   -0.5390 C.3    17  LEU17       0.0019
      5  CD1       -6.7120   -3.3620   -1.4700 C.3    17  LEU17       0.0001
      6  CD2       -7.4980   -2.5610    0.9130 C.3    17  LEU17       0.0001
      7  C         -6.7000    0.2280   -2.5610 C.2    17  LEU17       0.2592
      8  O         -7.1860   -0.2780   -3.5510 O.2    17  LEU17      -0.2718
      9  N         -7.2650    1.2690   -1.9650 N.am   18  ASP18      -0.1960
     10  CA        -8.5260    1.8930   -2.2590 C.3    18  ASP18       0.1840
     11  CB        -9.6810    1.0560   -1.6740 C.3    18  ASP18       0.1450
     12  CG       -11.0010    1.6360   -2.1090 C.2    18  ASP18       0.3671
     13  OD1      -11.5960    2.3310   -1.2790 O.co2  18  ASP18      -0.2456
     14  OD2      -11.5460    1.2700   -3.1630 O.co2  18  ASP18      -0.2456
     15  C         -8.5570    3.3770   -1.7380 C.2    18  ASP18       0.2622
     16  O         -8.6960    4.2620   -2.5680 O.2    18  ASP18      -0.2715
     17  N         -8.4180    3.5730   -0.4160 N.am   19  ILE19      -0.1963
     18  CA        -8.3980    4.9040    0.1930 C.3    19  ILE19       0.1727
     19  CB        -8.4260    4.8620    1.7600 C.3    19  ILE19       0.0290
     20  CG2       -7.7310    6.0060    2.5190 C.3    19  ILE19       0.0023
     21  CG1       -9.9240    4.5740    2.2500 C.3    19  ILE19       0.0022
     22  CD1      -10.9740    5.6950    2.0110 C.3    19  ILE19       0.0001
     23  C         -7.1570    5.7010   -0.3260 C.2    19  ILE19       0.2616
     24  O         -7.3050    6.7970   -0.9200 O.2    19  ILE19      -0.2715
     25  N         -5.9900    5.0720   -0.2260 N.am   20  ILE20      -0.1963
     26  CA        -4.7520    5.3490   -0.9430 C.3    20  ILE20       0.1727
     27  CB        -3.5230    4.9310   -0.1080 C.3    20  ILE20       0.0290
     28  CG2       -2.1210    5.5060   -0.7390 C.3    20  ILE20       0.0023
     29  CG1       -3.5940    5.4760    1.3470 C.3    20  ILE20       0.0022
     30  CD1       -2.3570    5.1940    2.2260 C.3    20  ILE20       0.0001
     31  C         -4.7590    4.7050   -2.3650 C.2    20  ILE20       0.2617
     32  O         -4.2060    3.6200   -2.5900 O.2    20  ILE20      -0.2715
     33  N         -5.4060    5.3330   -3.3880 N.am   21  TRP21      -0.1938
     34  CA        -5.3950    4.7680   -4.7850 C.3    21  TRP21       0.2021
     35  CB        -6.6210    3.8650   -5.0310 C.3    21  TRP21       0.0612
     36  CG        -6.7890    3.3770   -6.4480 C.ar   21  TRP21       0.0007
     37  CD1       -7.1340    4.1960   -7.4760 C.ar   21  TRP21       0.0946
     38  NE1       -7.1740    3.4060   -8.6160 N.ar   21  TRP21      -0.2442
     39  CE2       -6.9360    2.0750   -8.3350 C.ar   21  TRP21       0.0810
     40  CZ2       -6.8300    1.0510   -9.2060 C.ar   21  TRP21       0.0191
     41  CH2       -6.3330   -0.2010   -8.7710 C.ar   21  TRP21       0.0015
     42  CZ3       -5.9560   -0.2520   -7.3640 C.ar   21  TRP21       0.0001
     43  CE3       -6.0150    0.8940   -6.5860 C.ar   21  TRP21       0.0012
     44  CD2       -6.6320    2.0560   -6.9830 C.ar   21  TRP21       0.0152
     45  C         -5.1960    5.8550   -5.8260 C.2    21  TRP21       0.3845
     46  O         -4.1840    5.6720   -6.5070 O.co2  21  TRP21      -0.2437
     47  OXT       -5.9640    6.8330   -6.0170 O.co2  21  TRP21      -0.2437
@<TRIPOS>BOND
     1    40    41   ar
     2    40    39   ar
     3    41    42   ar
     4    38    39   ar
     5    38    37   ar
     6    39    44   ar
     7    37    36   ar
     8    42    43   ar
     9    44    43   ar
    10    44    36   ar
    11    46    45   ar
    12    36    35    1
    13    47    45   ar
    14    45    34    1
    15    35    34    1
    16    34    33    1
    17     8     7    2
    18    33    31   am
    19    14    12   ar
    20    32    31    2
    21    16    15    2
    22     7     9   am
    23     7     2    1
    24    31    26    1
    25    10     9    1
    26    10    15    1
    27    10    11    1
    28    12    11    1
    29    12    13   ar
    30     2     1    1
    31     2     3    1
    32    15    17   am
    33     5     4    1
    34    26    25    1
    35    26    27    1
    36    24    23    2
    37    28    27    1
    38     4     3    1
    39     4     6    1
    40    17    18    1
    41    23    25   am
    42    23    18    1
    43    27    29    1
    44    18    19    1
    45    29    30    1
    46    19    21    1
    47    19    20    1
    48    22    21    1
