@<TRIPOS>MOLECULE
../1EDN/PCA2_17-21_NOBACKBONE.pdb
 26 23 0 0 0
SMALL
GASTEIGER

@<TRIPOS>ATOM
      1  CB        -5.9860   -1.2020   -0.4580 C.3    17  LEU17       0.0000
      2  CG        -7.1280   -2.2100   -0.5390 C.3    17  LEU17       0.0000
      3  CD1       -6.7120   -3.3620   -1.4700 C.3    17  LEU17       0.0000
      4  CD2       -7.4980   -2.5610    0.9130 C.3    17  LEU17       0.0000
      5  CB        -9.6810    1.0560   -1.6740 C.3    18  ASP18       0.1258
      6  CG       -11.0010    1.6360   -2.1090 C.2    18  ASP18       0.3654
      7  OD1      -11.5960    2.3310   -1.2790 O.co2  18  ASP18      -0.2456
      8  OD2      -11.5460    1.2700   -3.1630 O.co2  18  ASP18      -0.2456
      9  CB        -8.4260    4.8620    1.7600 C.3    19  ILE19       0.0000
     10  CG2       -7.7310    6.0060    2.5190 C.3    19  ILE19       0.0000
     11  CG1       -9.9240    4.5740    2.2500 C.3    19  ILE19       0.0000
     12  CD1      -10.9740    5.6950    2.0110 C.3    19  ILE19       0.0000
     13  CB        -3.5230    4.9310   -0.1080 C.3    20  ILE20       0.0000
     14  CG2       -2.1210    5.5060   -0.7390 C.3    20  ILE20       0.0000
     15  CG1       -3.5940    5.4760    1.3470 C.3    20  ILE20       0.0000
     16  CD1       -2.3570    5.1940    2.2260 C.3    20  ILE20       0.0000
     17  CB        -6.6210    3.8650   -5.0310 C.3    21  TRP21       0.0327
     18  CG        -6.7890    3.3770   -6.4480 C.ar   21  TRP21      -0.0013
     19  CD1       -7.1340    4.1960   -7.4760 C.ar   21  TRP21       0.0946
     20  NE1       -7.1740    3.4060   -8.6160 N.ar   21  TRP21      -0.2442
     21  CE2       -6.9360    2.0750   -8.3350 C.ar   21  TRP21       0.0810
     22  CZ2       -6.8300    1.0510   -9.2060 C.ar   21  TRP21       0.0191
     23  CH2       -6.3330   -0.2010   -8.7710 C.ar   21  TRP21       0.0015
     24  CZ3       -5.9560   -0.2520   -7.3640 C.ar   21  TRP21       0.0001
     25  CE3       -6.0150    0.8940   -6.5860 C.ar   21  TRP21       0.0012
     26  CD2       -6.6320    2.0560   -6.9830 C.ar   21  TRP21       0.0152
@<TRIPOS>BOND
     1    22    23   ar
     2    22    21   ar
     3    23    24   ar
     4    20    21   ar
     5    20    19   ar
     6    21    26   ar
     7    19    18   ar
     8    24    25   ar
     9    26    25   ar
    10    26    18   ar
    11    18    17    1
    12     8     6   ar
    13     6     5    1
    14     6     7   ar
    15     3     2    1
    16    14    13    1
    17     2     1    1
    18     2     4    1
    19    13    15    1
    20    15    16    1
    21     9    11    1
    22     9    10    1
    23    12    11    1
@<TRIPOS>MOLECULE
2-[[2-[2-butyl-4-[(Z)-2-carboxy-3-(6-methoxy-1,3-benzodioxol-5-yl)prop-1-enyl]pyrazol-3-yl]-5-methoxyphenoxy]methyl]benzoic acid
 45 49 0 0 0
SMALL
GASTEIGER

@<TRIPOS>ATOM
      1 O          -6.6536    2.2391   -4.5280 O.3     1  LIG11      -0.4866
      2 O          -6.5499    5.3894    5.9547 O.3     1  LIG11      -0.4526
      3 O          -6.3002    3.0042    6.2240 O.3     1  LIG11      -0.4525
      4 O          -3.5416    2.6622    2.2797 O.3     1  LIG11      -0.4947
      5 O          -4.1090    5.1837   -7.2265 O.3     1  LIG11      -0.4950
      6 O          -1.2995    6.3614    0.8948 O.co2   1  LIG11      -0.5449
      7 O          -0.9748    4.1893    0.2743 O.co2   1  LIG11      -0.5449
      8 O          -4.2543   -1.2077   -5.4001 O.co2   1  LIG11      -0.5446
      9 O          -2.8432   -0.5893   -7.0635 O.co2   1  LIG11      -0.5446
     10 N          -6.8060    2.9849   -1.5735 N.ar    1  LIG11      -0.2630
     11 N          -7.3209    3.5985   -0.4777 N.ar    1  LIG11      -0.1785
     12 C          -5.6056    3.5801   -1.9688 C.ar    1  LIG11       0.0795
     13 C          -7.1177    1.5627   -1.6874 C.3     1  LIG11       0.0422
     14 C          -8.5818    1.2546   -2.0174 C.3     1  LIG11      -0.0336
     15 C          -5.0939    4.0164   -0.7326 C.ar    1  LIG11       0.0207
     16 C          -5.1542    3.8115   -3.3769 C.ar    1  LIG11       0.0425
     17 C          -9.4982    1.3458   -0.7887 C.3     1  LIG11      -0.0542
     18 C          -6.2324    4.1134    0.0925 C.ar    1  LIG11       0.0571
     19 C          -3.7307    4.3373   -0.4214 C.2     1  LIG11      -0.0459
     20 C          -3.8980    5.6124    1.8149 C.3     1  LIG11       0.0029
     21 C          -5.7082    3.2442   -4.5468 C.ar    1  LIG11       0.1336
     22 C          -3.2040    4.9669    0.6528 C.2     1  LIG11      -0.0200
     23 C          -4.4681    4.7747    2.9589 C.ar    1  LIG11       0.0023
     24 C          -4.1809    4.8229   -3.5874 C.ar    1  LIG11      -0.0456
     25 C         -10.9139    0.8847   -1.0937 C.3     1  LIG11      -0.0652
     26 C          -5.3675    3.7487   -5.8190 C.ar    1  LIG11       0.0224
     27 C          -4.3317    3.3757    3.1367 C.ar    1  LIG11       0.1273
     28 C          -5.2234    5.5000    3.9122 C.ar    1  LIG11      -0.0092
     29 C          -3.7856    5.2602   -4.8571 C.ar    1  LIG11      -0.0191
     30 C          -5.8025    4.8285    4.9664 C.ar    1  LIG11       0.1667
     31 C          -4.3922    4.7213   -5.9708 C.ar    1  LIG11       0.1236
     32 C          -5.6606    3.4737    5.1185 C.ar    1  LIG11       0.1697
     33 C          -4.9265    2.7221    4.2299 C.ar    1  LIG11       0.0258
     34 C          -1.6734    5.1820    0.6153 C.2     1  LIG11       0.0680
     35 C          -6.0843    0.9723   -4.9829 C.3     1  LIG11       0.1153
     36 C          -6.8577    4.2260    6.7466 C.3     1  LIG11       0.2332
     37 C          -6.1588    0.7551   -6.4863 C.ar    1  LIG11      -0.0016
     38 C          -5.1139    0.1049   -7.1839 C.ar    1  LIG11       0.0037
     39 C          -7.2696    1.2283   -7.2123 C.ar    1  LIG11      -0.0547
     40 C          -4.1685    1.5035    1.7366 C.3     1  LIG11       0.0788
     41 C          -5.1467    0.0813   -8.5916 C.ar    1  LIG11      -0.0525
     42 C          -7.2933    1.1702   -8.6076 C.ar    1  LIG11      -0.0614
     43 C          -2.9055    4.5787   -7.7020 C.3     1  LIG11       0.0788
     44 C          -6.2194    0.6200   -9.2986 C.ar    1  LIG11      -0.0611
     45 C          -3.9737   -0.6053   -6.4827 C.2     1  LIG11       0.0720
@<TRIPOS>BOND
     1     1    35    1
     2     1    21    1
     3     2    36    1
     4     2    30    1
     5     3    32    1
     6     3    36    1
     7     4    27    1
     8     4    40    1
     9     5    31    1
    10     5    43    1
    11     6    34   ar
    12     7    34   ar
    13     8    45   ar
    14     9    45   ar
    15    10    11   ar
    16    10    12   ar
    17    10    13    1
    18    11    18   ar
    19    12    15   ar
    20    13    14    1
    21    14    17    1
    22    15    18   ar
    23    15    19    1
    24    16    24   ar
    25    16    21   ar
    26    16    12    1
    27    17    25    1
    28    19    22    2
    29    20    22    1
    30    20    23    1
    31    21    26   ar
    32    22    34    1
    33    23    28   ar
    34    23    27   ar
    35    24    29   ar
    36    26    31   ar
    37    27    33   ar
    38    28    30   ar
    39    29    31   ar
    40    30    32   ar
    41    32    33   ar
    42    35    37    1
    43    37    39   ar
    44    37    38   ar
    45    38    41   ar
    46    38    45    1
    47    39    42   ar
    48    41    44   ar
    49    42    44   ar
@<TRIPOS>MOLECULE
../1EDN/PCA2_17-21.pdb
 47 48 0 0 0
SMALL
GASTEIGER

@<TRIPOS>ATOM
      1  N         -4.4680    0.3970   -1.5420 N.3    17  LEU17      -0.1231
      2  CA        -5.5730   -0.5090   -1.8150 C.3    17  LEU17       0.1693
      3  CB        -5.9860   -1.2020   -0.4580 C.3    17  LEU17       0.0284
      4  CG        -7.1280   -2.2100   -0.5390 C.3    17  LEU17       0.0019
      5  CD1       -6.7120   -3.3620   -1.4700 C.3    17  LEU17       0.0001
      6  CD2       -7.4980   -2.5610    0.9130 C.3    17  LEU17       0.0001
      7  C         -6.7000    0.2280   -2.5610 C.2    17  LEU17       0.2592
      8  O         -7.1860   -0.2780   -3.5510 O.2    17  LEU17      -0.2718
      9  N         -7.2650    1.2690   -1.9650 N.am   18  ASP18      -0.1960
     10  CA        -8.5260    1.8930   -2.2590 C.3    18  ASP18       0.1840
     11  CB        -9.6810    1.0560   -1.6740 C.3    18  ASP18       0.1450
     12  CG       -11.0010    1.6360   -2.1090 C.2    18  ASP18       0.3671
     13  OD1      -11.5960    2.3310   -1.2790 O.co2  18  ASP18      -0.2456
     14  OD2      -11.5460    1.2700   -3.1630 O.co2  18  ASP18      -0.2456
     15  C         -8.5570    3.3770   -1.7380 C.2    18  ASP18       0.2622
     16  O         -8.6960    4.2620   -2.5680 O.2    18  ASP18      -0.2715
     17  N         -8.4180    3.5730   -0.4160 N.am   19  ILE19      -0.1963
     18  CA        -8.3980    4.9040    0.1930 C.3    19  ILE19       0.1727
     19  CB        -8.4260    4.8620    1.7600 C.3    19  ILE19       0.0290
     20  CG2       -7.7310    6.0060    2.5190 C.3    19  ILE19       0.0023
     21  CG1       -9.9240    4.5740    2.2500 C.3    19  ILE19       0.0022
     22  CD1      -10.9740    5.6950    2.0110 C.3    19  ILE19       0.0001
     23  C         -7.1570    5.7010   -0.3260 C.2    19  ILE19       0.2616
     24  O         -7.3050    6.7970   -0.9200 O.2    19  ILE19      -0.2715
     25  N         -5.9900    5.0720   -0.2260 N.am   20  ILE20      -0.1963
     26  CA        -4.7520    5.3490   -0.9430 C.3    20  ILE20       0.1727
     27  CB        -3.5230    4.9310   -0.1080 C.3    20  ILE20       0.0290
     28  CG2       -2.1210    5.5060   -0.7390 C.3    20  ILE20       0.0023
     29  CG1       -3.5940    5.4760    1.3470 C.3    20  ILE20       0.0022
     30  CD1       -2.3570    5.1940    2.2260 C.3    20  ILE20       0.0001
     31  C         -4.7590    4.7050   -2.3650 C.2    20  ILE20       0.2617
     32  O         -4.2060    3.6200   -2.5900 O.2    20  ILE20      -0.2715
     33  N         -5.4060    5.3330   -3.3880 N.am   21  TRP21      -0.1938
     34  CA        -5.3950    4.7680   -4.7850 C.3    21  TRP21       0.2021
     35  CB        -6.6210    3.8650   -5.0310 C.3    21  TRP21       0.0612
     36  CG        -6.7890    3.3770   -6.4480 C.ar   21  TRP21       0.0007
     37  CD1       -7.1340    4.1960   -7.4760 C.ar   21  TRP21       0.0946
     38  NE1       -7.1740    3.4060   -8.6160 N.ar   21  TRP21      -0.2442
     39  CE2       -6.9360    2.0750   -8.3350 C.ar   21  TRP21       0.0810
     40  CZ2       -6.8300    1.0510   -9.2060 C.ar   21  TRP21       0.0191
     41  CH2       -6.3330   -0.2010   -8.7710 C.ar   21  TRP21       0.0015
     42  CZ3       -5.9560   -0.2520   -7.3640 C.ar   21  TRP21       0.0001
     43  CE3       -6.0150    0.8940   -6.5860 C.ar   21  TRP21       0.0012
     44  CD2       -6.6320    2.0560   -6.9830 C.ar   21  TRP21       0.0152
     45  C         -5.1960    5.8550   -5.8260 C.2    21  TRP21       0.3845
     46  O         -4.1840    5.6720   -6.5070 O.co2  21  TRP21      -0.2437
     47  OXT       -5.9640    6.8330   -6.0170 O.co2  21  TRP21      -0.2437
@<TRIPOS>BOND
     1    40    41   ar
     2    40    39   ar
     3    41    42   ar
     4    38    39   ar
     5    38    37   ar
     6    39    44   ar
     7    37    36   ar
     8    42    43   ar
     9    44    43   ar
    10    44    36   ar
    11    46    45   ar
    12    36    35    1
    13    47    45   ar
    14    45    34    1
    15    35    34    1
    16    34    33    1
    17     8     7    2
    18    33    31   am
    19    14    12   ar
    20    32    31    2
    21    16    15    2
    22     7     9   am
    23     7     2    1
    24    31    26    1
    25    10     9    1
    26    10    15    1
    27    10    11    1
    28    12    11    1
    29    12    13   ar
    30     2     1    1
    31     2     3    1
    32    15    17   am
    33     5     4    1
    34    26    25    1
    35    26    27    1
    36    24    23    2
    37    28    27    1
    38     4     3    1
    39     4     6    1
    40    17    18    1
    41    23    25   am
    42    23    18    1
    43    27    29    1
    44    18    19    1
    45    29    30    1
    46    19    21    1
    47    19    20    1
    48    22    21    1
