@<TRIPOS>MOLECULE
../1EDN/PCA2_17-21_NOBACKBONE.pdb
 26 23 0 0 0
SMALL
GASTEIGER

@<TRIPOS>ATOM
      1  CB        -5.9860   -1.2020   -0.4580 C.3    17  LEU17       0.0000
      2  CG        -7.1280   -2.2100   -0.5390 C.3    17  LEU17       0.0000
      3  CD1       -6.7120   -3.3620   -1.4700 C.3    17  LEU17       0.0000
      4  CD2       -7.4980   -2.5610    0.9130 C.3    17  LEU17       0.0000
      5  CB        -9.6810    1.0560   -1.6740 C.3    18  ASP18       0.1258
      6  CG       -11.0010    1.6360   -2.1090 C.2    18  ASP18       0.3654
      7  OD1      -11.5960    2.3310   -1.2790 O.co2  18  ASP18      -0.2456
      8  OD2      -11.5460    1.2700   -3.1630 O.co2  18  ASP18      -0.2456
      9  CB        -8.4260    4.8620    1.7600 C.3    19  ILE19       0.0000
     10  CG2       -7.7310    6.0060    2.5190 C.3    19  ILE19       0.0000
     11  CG1       -9.9240    4.5740    2.2500 C.3    19  ILE19       0.0000
     12  CD1      -10.9740    5.6950    2.0110 C.3    19  ILE19       0.0000
     13  CB        -3.5230    4.9310   -0.1080 C.3    20  ILE20       0.0000
     14  CG2       -2.1210    5.5060   -0.7390 C.3    20  ILE20       0.0000
     15  CG1       -3.5940    5.4760    1.3470 C.3    20  ILE20       0.0000
     16  CD1       -2.3570    5.1940    2.2260 C.3    20  ILE20       0.0000
     17  CB        -6.6210    3.8650   -5.0310 C.3    21  TRP21       0.0327
     18  CG        -6.7890    3.3770   -6.4480 C.ar   21  TRP21      -0.0013
     19  CD1       -7.1340    4.1960   -7.4760 C.ar   21  TRP21       0.0946
     20  NE1       -7.1740    3.4060   -8.6160 N.ar   21  TRP21      -0.2442
     21  CE2       -6.9360    2.0750   -8.3350 C.ar   21  TRP21       0.0810
     22  CZ2       -6.8300    1.0510   -9.2060 C.ar   21  TRP21       0.0191
     23  CH2       -6.3330   -0.2010   -8.7710 C.ar   21  TRP21       0.0015
     24  CZ3       -5.9560   -0.2520   -7.3640 C.ar   21  TRP21       0.0001
     25  CE3       -6.0150    0.8940   -6.5860 C.ar   21  TRP21       0.0012
     26  CD2       -6.6320    2.0560   -6.9830 C.ar   21  TRP21       0.0152
@<TRIPOS>BOND
     1    22    23   ar
     2    22    21   ar
     3    23    24   ar
     4    20    21   ar
     5    20    19   ar
     6    21    26   ar
     7    19    18   ar
     8    24    25   ar
     9    26    25   ar
    10    26    18   ar
    11    18    17    1
    12     8     6   ar
    13     6     5    1
    14     6     7   ar
    15     3     2    1
    16    14    13    1
    17     2     1    1
    18     2     4    1
    19    13    15    1
    20    15    16    1
    21     9    11    1
    22     9    10    1
    23    12    11    1
@<TRIPOS>MOLECULE
123882
 66 71 0 0 0
SMALL
GASTEIGER

@<TRIPOS>ATOM
      1 S          -1.8159    1.9269   -4.5177 S.2     3  UNK33      -0.0993
      2 O          -6.9263    8.4048    2.0854 O.2     1  UNK11      -0.2755
      3 O          -8.2929   -1.1153   -2.4709 O.2     4  LEU44      -0.2738
      4 O          -6.2838    5.7778   -0.7883 O.2     1  UNK11      -0.2737
      5 O          -7.8403    2.8081   -1.4346 O.2     5  TRP55      -0.2738
      6 O         -10.0506    5.6979   -0.6927 O.2     6  ASP66      -0.2738
      7 O          -4.0154    0.2843   -3.4712 O.2     3  UNK33      -0.2734
      8 O          -4.2127    2.2137    0.5685 O.2     2  ASP22      -0.2737
      9 OD1       -12.2513    1.3437   -0.9476 O.co2   6  ASP66      -0.5497
     10 OD2       -12.6512    1.5166    1.3005 O.co2   6  ASP66      -0.5497
     11 OD1        -4.3587    5.9961    3.2505 O.co2   2  ASP22      -0.5497
     12 OD2        -2.2730    6.6559    2.5716 O.co2   2  ASP22      -0.5497
     13 N          -6.7825    7.7409    4.2833 N.am    1  UNK11      -0.2984
     14 N          -5.2779    7.7462    6.8559 N.pl3   1  UNK11      -0.3269
     15 N          -8.6770    4.7389    0.8853 N.am    1  UNK11      -0.3020
     16 N          -7.4813    0.9100   -3.1609 N.am    5  TRP55      -0.3022
     17 N          -5.2743    0.7772   -1.6622 N.am    4  LEU44      -0.3022
     18 N         -10.1208    2.8373   -1.6429 N.am    6  ASP66      -0.3021
     19 N          -5.5686    4.8974    1.1871 N.am    2  ASP22      -0.3021
     20 N          -3.9710    3.3268   -1.3862 N.am    3  UNK33      -0.2984
     21 NE1        -9.1065    0.0316   -7.3925 N.ar    5  TRP55      -0.3604
     22 C          -7.0041    6.7454    5.3379 C.3     1  UNK11       0.0304
     23 C          -5.8651    8.8311    4.6350 C.3     1  UNK11       0.0304
     24 C          -6.6792    7.2867    6.7412 C.3     1  UNK11       0.0280
     25 C          -4.7458    8.3838    5.6029 C.3     1  UNK11       0.0280
     26 C          -7.1048    7.5385    2.9428 C.2     1  UNK11       0.2179
     27 C          -7.7924    6.2252    2.6046 C.3     1  UNK11       0.0510
     28 C          -7.8384    5.9281    1.1027 C.3     1  UNK11       0.1076
     29 CA         -6.0609   -0.4702   -1.7038 C.3     4  LEU44       0.0997
     30 CB         -6.2782   -0.9448   -0.2535 C.3     4  LEU44      -0.0236
     31 CA         -8.7828    1.5657   -3.2963 C.3     5  TRP55       0.1034
     32 C          -4.3228    6.8637    7.4071 C.ar    1  UNK11       0.0298
     33 CG         -6.9141   -2.3344   -0.0456 C.3     4  LEU44      -0.0446
     34 CB         -8.8758    2.4048   -4.5758 C.3     5  TRP55       0.0013
     35 C          -7.3991   -0.2724   -2.4555 C.2     4  LEU44       0.2340
     36 CA        -10.2925    3.2972   -0.2623 C.3     6  ASP66       0.1045
     37 C          -6.4792    5.6001    0.4173 C.2     1  UNK11       0.2344
     38 CG         -8.7363    1.5800   -5.8297 C.ar    5  TRP55      -0.0201
     39 C          -8.8593    2.4619   -2.0422 C.2     5  TRP55       0.2343
     40 C          -9.6753    4.7063   -0.0743 C.2     6  ASP66       0.2343
     41 CA         -4.2193    4.6648    0.6783 C.3     2  ASP22       0.1045
     42 CD2        -6.1879   -3.4428   -0.8057 C.3     4  LEU44      -0.0626
     43 CD1        -6.9422   -2.6656    1.4509 C.3     4  LEU44      -0.0626
     44 C          -3.3074    2.2306   -2.0982 C.3     3  UNK33       0.1311
     45 C          -4.5099    5.4778    7.5178 C.ar    1  UNK11      -0.0407
     46 C          -3.0897    7.3764    7.8477 C.ar    1  UNK11      -0.0407
     47 CD2        -7.6746    1.6289   -6.7956 C.ar    5  TRP55       0.0029
     48 C          -4.2447    1.0556   -2.5407 C.2     3  UNK33       0.2390
     49 CB        -11.7595    3.3630    0.1432 C.3     6  ASP66       0.0138
     50 CD1        -9.6080    0.5928   -6.2519 C.ar    5  TRP55       0.0060
     51 CE2        -7.9351    0.6519   -7.7583 C.ar    5  TRP55       0.0467
     52 C          -4.1469    3.2919   -0.0240 C.2     2  ASP22       0.2345
     53 CB         -3.1684    4.6228    1.7902 C.3     2  ASP22       0.0138
     54 C          -3.5086    4.6405    8.0256 C.ar    1  UNK11      -0.0600
     55 C          -2.0850    6.5460    8.3567 C.ar    1  UNK11      -0.0600
     56 C          -2.4306    2.8417   -3.1939 C.ar    3  UNK33       0.0189
     57 CE3        -6.5017    2.4017   -6.9326 C.ar    5  TRP55      -0.0523
     58 C          -2.2945    5.1743    8.4432 C.ar    1  UNK11      -0.0616
     59 CZ2        -7.0874    0.4098   -8.8473 C.ar    5  TRP55      -0.0378
     60 CG        -12.2723    1.9350    0.1735 C.2     6  ASP66       0.0440
     61 CZ3        -5.6445    2.1756   -8.0167 C.ar    5  TRP55      -0.0611
     62 C          -1.8825    4.1205   -3.2210 C.ar    3  UNK33      -0.0493
     63 CH2        -5.9352    1.1929   -8.9600 C.ar    5  TRP55      -0.0598
     64 CG         -3.2678    5.8865    2.6138 C.2     2  ASP22       0.0440
     65 C          -1.0296    4.3510   -4.3390 C.ar    3  UNK33      -0.0544
     66 C          -0.9228    3.2380   -5.1360 C.ar    3  UNK33      -0.0240
@<TRIPOS>BOND
     1     1    56   ar
     2     1    66   ar
     3     2    26    2
     4     3    35    2
     5     4    37    2
     6     5    39    2
     7     6    40    2
     8     7    48    2
     9     8    52    2
    10     9    60   ar
    11    10    60   ar
    12    11    64   ar
    13    12    64   ar
    14    13    22    1
    15    13    23    1
    16    14    24    1
    17    14    25    1
    18    14    32    1
    19    15    28    1
    20    15    40   am
    21    16    35   am
    22    16    31    1
    23    17    48   am
    24    17    29    1
    25    18    39   am
    26    18    36    1
    27    19    37   am
    28    19    41    1
    29    20    52   am
    30    20    44    1
    31    21    50   ar
    32    21    51   ar
    33    22    24    1
    34    23    25    1
    35    26    27    1
    36    26    13   am
    37    28    37    1
    38    28    27    1
    39    29    35    1
    40    29    30    1
    41    30    33    1
    42    31    39    1
    43    31    34    1
    44    32    45   ar
    45    32    46   ar
    46    33    43    1
    47    33    42    1
    48    34    38    1
    49    36    40    1
    50    36    49    1
    51    38    47   ar
    52    38    50   ar
    53    41    52    1
    54    41    53    1
    55    44    48    1
    56    44    56    1
    57    45    54   ar
    58    46    55   ar
    59    47    57   ar
    60    47    51   ar
    61    49    60    1
    62    51    59   ar
    63    53    64    1
    64    54    58   ar
    65    55    58   ar
    66    56    62   ar
    67    57    61   ar
    68    59    63   ar
    69    61    63   ar
    70    62    65   ar
    71    65    66   ar
@<TRIPOS>MOLECULE
../1EDN/PCA2_17-21.pdb
 47 48 0 0 0
SMALL
GASTEIGER

@<TRIPOS>ATOM
      1  N         -4.4680    0.3970   -1.5420 N.3    17  LEU17      -0.1231
      2  CA        -5.5730   -0.5090   -1.8150 C.3    17  LEU17       0.1693
      3  CB        -5.9860   -1.2020   -0.4580 C.3    17  LEU17       0.0284
      4  CG        -7.1280   -2.2100   -0.5390 C.3    17  LEU17       0.0019
      5  CD1       -6.7120   -3.3620   -1.4700 C.3    17  LEU17       0.0001
      6  CD2       -7.4980   -2.5610    0.9130 C.3    17  LEU17       0.0001
      7  C         -6.7000    0.2280   -2.5610 C.2    17  LEU17       0.2592
      8  O         -7.1860   -0.2780   -3.5510 O.2    17  LEU17      -0.2718
      9  N         -7.2650    1.2690   -1.9650 N.am   18  ASP18      -0.1960
     10  CA        -8.5260    1.8930   -2.2590 C.3    18  ASP18       0.1840
     11  CB        -9.6810    1.0560   -1.6740 C.3    18  ASP18       0.1450
     12  CG       -11.0010    1.6360   -2.1090 C.2    18  ASP18       0.3671
     13  OD1      -11.5960    2.3310   -1.2790 O.co2  18  ASP18      -0.2456
     14  OD2      -11.5460    1.2700   -3.1630 O.co2  18  ASP18      -0.2456
     15  C         -8.5570    3.3770   -1.7380 C.2    18  ASP18       0.2622
     16  O         -8.6960    4.2620   -2.5680 O.2    18  ASP18      -0.2715
     17  N         -8.4180    3.5730   -0.4160 N.am   19  ILE19      -0.1963
     18  CA        -8.3980    4.9040    0.1930 C.3    19  ILE19       0.1727
     19  CB        -8.4260    4.8620    1.7600 C.3    19  ILE19       0.0290
     20  CG2       -7.7310    6.0060    2.5190 C.3    19  ILE19       0.0023
     21  CG1       -9.9240    4.5740    2.2500 C.3    19  ILE19       0.0022
     22  CD1      -10.9740    5.6950    2.0110 C.3    19  ILE19       0.0001
     23  C         -7.1570    5.7010   -0.3260 C.2    19  ILE19       0.2616
     24  O         -7.3050    6.7970   -0.9200 O.2    19  ILE19      -0.2715
     25  N         -5.9900    5.0720   -0.2260 N.am   20  ILE20      -0.1963
     26  CA        -4.7520    5.3490   -0.9430 C.3    20  ILE20       0.1727
     27  CB        -3.5230    4.9310   -0.1080 C.3    20  ILE20       0.0290
     28  CG2       -2.1210    5.5060   -0.7390 C.3    20  ILE20       0.0023
     29  CG1       -3.5940    5.4760    1.3470 C.3    20  ILE20       0.0022
     30  CD1       -2.3570    5.1940    2.2260 C.3    20  ILE20       0.0001
     31  C         -4.7590    4.7050   -2.3650 C.2    20  ILE20       0.2617
     32  O         -4.2060    3.6200   -2.5900 O.2    20  ILE20      -0.2715
     33  N         -5.4060    5.3330   -3.3880 N.am   21  TRP21      -0.1938
     34  CA        -5.3950    4.7680   -4.7850 C.3    21  TRP21       0.2021
     35  CB        -6.6210    3.8650   -5.0310 C.3    21  TRP21       0.0612
     36  CG        -6.7890    3.3770   -6.4480 C.ar   21  TRP21       0.0007
     37  CD1       -7.1340    4.1960   -7.4760 C.ar   21  TRP21       0.0946
     38  NE1       -7.1740    3.4060   -8.6160 N.ar   21  TRP21      -0.2442
     39  CE2       -6.9360    2.0750   -8.3350 C.ar   21  TRP21       0.0810
     40  CZ2       -6.8300    1.0510   -9.2060 C.ar   21  TRP21       0.0191
     41  CH2       -6.3330   -0.2010   -8.7710 C.ar   21  TRP21       0.0015
     42  CZ3       -5.9560   -0.2520   -7.3640 C.ar   21  TRP21       0.0001
     43  CE3       -6.0150    0.8940   -6.5860 C.ar   21  TRP21       0.0012
     44  CD2       -6.6320    2.0560   -6.9830 C.ar   21  TRP21       0.0152
     45  C         -5.1960    5.8550   -5.8260 C.2    21  TRP21       0.3845
     46  O         -4.1840    5.6720   -6.5070 O.co2  21  TRP21      -0.2437
     47  OXT       -5.9640    6.8330   -6.0170 O.co2  21  TRP21      -0.2437
@<TRIPOS>BOND
     1    40    41   ar
     2    40    39   ar
     3    41    42   ar
     4    38    39   ar
     5    38    37   ar
     6    39    44   ar
     7    37    36   ar
     8    42    43   ar
     9    44    43   ar
    10    44    36   ar
    11    46    45   ar
    12    36    35    1
    13    47    45   ar
    14    45    34    1
    15    35    34    1
    16    34    33    1
    17     8     7    2
    18    33    31   am
    19    14    12   ar
    20    32    31    2
    21    16    15    2
    22     7     9   am
    23     7     2    1
    24    31    26    1
    25    10     9    1
    26    10    15    1
    27    10    11    1
    28    12    11    1
    29    12    13   ar
    30     2     1    1
    31     2     3    1
    32    15    17   am
    33     5     4    1
    34    26    25    1
    35    26    27    1
    36    24    23    2
    37    28    27    1
    38     4     3    1
    39     4     6    1
    40    17    18    1
    41    23    25   am
    42    23    18    1
    43    27    29    1
    44    18    19    1
    45    29    30    1
    46    19    21    1
    47    19    20    1
    48    22    21    1
