@<TRIPOS>MOLECULE
../1EDN/PCA3_17-21_NOBACKBONE.pdb
 26 23 0 0 0
SMALL
GASTEIGER

@<TRIPOS>ATOM
      1  CB        -5.7360   -1.8160   -1.1010 C.3    17  LEU17       0.0000
      2  CG        -6.9950   -2.5690   -1.5730 C.3    17  LEU17       0.0000
      3  CD1       -6.7530   -3.1800   -3.0080 C.3    17  LEU17       0.0000
      4  CD2       -7.2580   -3.7400   -0.6960 C.3    17  LEU17       0.0000
      5  CB        -9.1090    1.3410    0.3760 C.3    18  ASP18       0.1258
      6  CG       -10.1470    2.2990    0.9520 C.2    18  ASP18       0.3654
      7  OD1      -11.0720    2.5310    0.1500 O.co2  18  ASP18      -0.2456
      8  OD2      -10.1960    2.6850    2.1610 O.co2  18  ASP18      -0.2456
      9  CB        -5.3140    3.8890    3.0670 C.3    19  ILE19       0.0000
     10  CG2       -4.6600    5.0630    3.8540 C.3    19  ILE19       0.0000
     11  CG1       -6.1440    2.9790    3.9890 C.3    19  ILE19       0.0000
     12  CD1       -5.5170    2.2940    5.2130 C.3    19  ILE19       0.0000
     13  CB        -2.4460    5.7340   -1.0120 C.3    20  ILE20       0.0000
     14  CG2       -2.3030    7.0110   -0.1100 C.3    20  ILE20       0.0000
     15  CG1       -1.4300    4.6170   -0.6100 C.3    20  ILE20       0.0000
     16  CD1        0.0800    4.9990   -0.7110 C.3    20  ILE20       0.0000
     17  CB        -6.2680    3.7450   -4.8170 C.3    21  TRP21       0.0327
     18  CG        -6.5090    2.9660   -6.0890 C.ar   21  TRP21      -0.0013
     19  CD1       -7.0550    3.4090   -7.2190 C.ar   21  TRP21       0.0946
     20  NE1       -7.1560    2.4190   -8.1260 N.ar   21  TRP21      -0.2442
     21  CE2       -6.6880    1.2600   -7.6470 C.ar   21  TRP21       0.0810
     22  CZ2       -6.5320   -0.1050   -8.0600 C.ar   21  TRP21       0.0191
     23  CH2       -5.9630   -1.0770   -7.2340 C.ar   21  TRP21       0.0015
     24  CZ3       -5.4330   -0.7150   -5.9030 C.ar   21  TRP21       0.0001
     25  CE3       -5.5290    0.6400   -5.5430 C.ar   21  TRP21       0.0012
     26  CD2       -6.2440    1.5830   -6.3190 C.ar   21  TRP21       0.0152
@<TRIPOS>BOND
     1    20    21   ar
     2    20    19   ar
     3    22    21   ar
     4    22    23   ar
     5    21    26   ar
     6    23    24   ar
     7    19    18   ar
     8    26    18   ar
     9    26    25   ar
    10    18    17    1
    11    24    25   ar
    12     3     2    1
    13     2     1    1
    14     2     4    1
    15    13    15    1
    16    13    14    1
    17    16    15    1
    18     7     6   ar
    19     5     6    1
    20     6     8   ar
    21     9    10    1
    22     9    11    1
    23    11    12    1
@<TRIPOS>MOLECULE
9957262
 35 38 0 0 0
SMALL
GASTEIGER

@<TRIPOS>ATOM
      1 S          -6.8094    4.7297   -2.8643 S.O2    1  LIG11       0.0668
      2 O          -5.3649    6.5996   -0.2082 O.3     1  LIG11      -0.4435
      3 O          -3.9948    9.1141   -0.3765 O.3     1  LIG11      -0.4771
      4 O          -7.4240    6.0143   -3.1076 O.2     1  LIG11      -0.1505
      5 O          -7.3461    3.8590   -1.8322 O.2     1  LIG11      -0.1505
      6 O          -5.1843    6.2802    2.4129 O.3     1  LIG11      -0.4914
      7 N          -5.1964    4.9524   -2.4133 N.pl3   1  LIG11      -0.1968
      8 N          -4.2661    6.6816   -3.6694 N.ar    1  LIG11      -0.2044
      9 N          -3.6477    8.7521   -2.6550 N.ar    1  LIG11      -0.1867
     10 N          -3.6734    7.8954   -6.1741 N.ar    1  LIG11      -0.2331
     11 N          -2.3312    9.4710   -4.9823 N.ar    1  LIG11      -0.2331
     12 C          -4.7346    6.3002   -2.4706 C.ar    1  LIG11       0.1883
     13 C          -4.7849    7.0994   -1.3442 C.ar    1  LIG11       0.2307
     14 C          -4.1648    8.3208   -1.4922 C.ar    1  LIG11       0.2639
     15 C          -6.0987    7.4597    0.5881 C.ar    1  LIG11       0.1702
     16 C          -6.7518    3.8378   -4.3543 C.2     1  LIG11       0.0729
     17 C          -3.7428    7.9279   -3.7242 C.ar    1  LIG11       0.2027
     18 C          -5.9758    7.3131    1.9794 C.ar    1  LIG11       0.1621
     19 C          -6.3127    2.5678   -4.3380 C.2     1  LIG11      -0.0353
     20 C          -6.2262    1.6502   -5.4895 C.ar    1  LIG11      -0.0237
     21 C          -6.9546    8.4329    0.0518 C.ar    1  LIG11      -0.0157
     22 C          -3.2195    8.4450   -5.0234 C.ar    1  LIG11       0.1978
     23 C          -6.6327    8.2212    2.8164 C.ar    1  LIG11      -0.0163
     24 C          -7.5960    9.3369    0.8967 C.ar    1  LIG11      -0.0581
     25 C          -7.4234    9.2396    2.2751 C.ar    1  LIG11      -0.0581
     26 C          -5.6761    0.3740   -5.2832 C.ar    1  LIG11      -0.0546
     27 C          -6.6786    1.9732   -6.7756 C.ar    1  LIG11      -0.0546
     28 C          -5.5728   -0.5468   -6.3306 C.ar    1  LIG11      -0.0612
     29 C          -6.5757    1.0520   -7.8244 C.ar    1  LIG11      -0.0612
     30 C          -6.0222   -0.2064   -7.6024 C.ar    1  LIG11      -0.0617
     31 C          -3.7432   10.4801   -0.6846 C.3     1  LIG11       0.0805
     32 C          -5.2160    5.9872    3.8038 C.3     1  LIG11       0.0790
     33 C          -3.2008    8.4196   -7.3212 C.ar    1  LIG11       0.0315
     34 C          -1.8875    9.9449   -6.1595 C.ar    1  LIG11       0.0315
     35 C          -2.2958    9.4529   -7.3739 C.ar    1  LIG11      -0.0254
@<TRIPOS>BOND
     1     1     4    2
     2     1     5    2
     3     1     7    1
     4     1    16    1
     5     2    13    1
     6     2    15    1
     7     3    14    1
     8     3    31    1
     9     6    18    1
    10     6    32    1
    11     7    12    1
    12     8    12   ar
    13     8    17   ar
    14     9    14   ar
    15     9    17   ar
    16    10    22   ar
    17    10    33   ar
    18    11    22   ar
    19    11    34   ar
    20    12    13   ar
    21    13    14   ar
    22    15    18   ar
    23    15    21   ar
    24    16    19    2
    25    17    22    1
    26    18    23   ar
    27    19    20    1
    28    20    26   ar
    29    20    27   ar
    30    21    24   ar
    31    23    25   ar
    32    24    25   ar
    33    26    28   ar
    34    27    29   ar
    35    28    30   ar
    36    29    30   ar
    37    33    35   ar
    38    34    35   ar
@<TRIPOS>MOLECULE
../1EDN/PCA3_17-21.pdb
 47 48 0 0 0
SMALL
GASTEIGER

@<TRIPOS>ATOM
      1  N         -4.2370    0.0490   -1.5930 N.3    17  LEU17      -0.1231
      2  CA        -5.5250   -0.5610   -1.9200 C.3    17  LEU17       0.1693
      3  CB        -5.7360   -1.8160   -1.1010 C.3    17  LEU17       0.0284
      4  CG        -6.9950   -2.5690   -1.5730 C.3    17  LEU17       0.0019
      5  CD1       -6.7530   -3.1800   -3.0080 C.3    17  LEU17       0.0001
      6  CD2       -7.2580   -3.7400   -0.6960 C.3    17  LEU17       0.0001
      7  C         -6.6810    0.4320   -1.9250 C.2    17  LEU17       0.2592
      8  O         -7.3270    0.6200   -2.9560 O.2    17  LEU17      -0.2718
      9  N         -6.9500    1.1080   -0.7900 N.am   18  ASP18      -0.1960
     10  CA        -8.0880    2.0070   -0.5710 C.3    18  ASP18       0.1840
     11  CB        -9.1090    1.3410    0.3760 C.3    18  ASP18       0.1450
     12  CG       -10.1470    2.2990    0.9520 C.2    18  ASP18       0.3671
     13  OD1      -11.0720    2.5310    0.1500 O.co2  18  ASP18      -0.2456
     14  OD2      -10.1960    2.6850    2.1610 O.co2  18  ASP18      -0.2456
     15  C         -7.6280    3.3500    0.0060 C.2    18  ASP18       0.2622
     16  O         -7.9950    4.4650   -0.3580 O.2    18  ASP18      -0.2715
     17  N         -6.8140    3.2050    1.0390 N.am   19  ILE19      -0.1963
     18  CA        -6.1800    4.3790    1.8160 C.3    19  ILE19       0.1727
     19  CB        -5.3140    3.8890    3.0670 C.3    19  ILE19       0.0290
     20  CG2       -4.6600    5.0630    3.8540 C.3    19  ILE19       0.0023
     21  CG1       -6.1440    2.9790    3.9890 C.3    19  ILE19       0.0022
     22  CD1       -5.5170    2.2940    5.2130 C.3    19  ILE19       0.0001
     23  C         -5.2670    5.2520    0.8640 C.2    19  ILE19       0.2616
     24  O         -5.3920    6.4650    0.9090 O.2    19  ILE19      -0.2715
     25  N         -4.4890    4.6060    0.0020 N.am   20  ILE20      -0.1963
     26  CA        -3.9690    5.2910   -1.1850 C.3    20  ILE20       0.1727
     27  CB        -2.4460    5.7340   -1.0120 C.3    20  ILE20       0.0290
     28  CG2       -2.3030    7.0110   -0.1100 C.3    20  ILE20       0.0023
     29  CG1       -1.4300    4.6170   -0.6100 C.3    20  ILE20       0.0022
     30  CD1        0.0800    4.9990   -0.7110 C.3    20  ILE20       0.0001
     31  C         -4.1660    4.3690   -2.4130 C.2    20  ILE20       0.2617
     32  O         -3.9200    3.1710   -2.5010 O.2    20  ILE20      -0.2715
     33  N         -4.6410    5.0460   -3.5090 N.am   21  TRP21      -0.1938
     34  CA        -4.8980    4.4430   -4.8120 C.3    21  TRP21       0.2021
     35  CB        -6.2680    3.7450   -4.8170 C.3    21  TRP21       0.0612
     36  CG        -6.5090    2.9660   -6.0890 C.ar   21  TRP21       0.0007
     37  CD1       -7.0550    3.4090   -7.2190 C.ar   21  TRP21       0.0946
     38  NE1       -7.1560    2.4190   -8.1260 N.ar   21  TRP21      -0.2442
     39  CE2       -6.6880    1.2600   -7.6470 C.ar   21  TRP21       0.0810
     40  CZ2       -6.5320   -0.1050   -8.0600 C.ar   21  TRP21       0.0191
     41  CH2       -5.9630   -1.0770   -7.2340 C.ar   21  TRP21       0.0015
     42  CZ3       -5.4330   -0.7150   -5.9030 C.ar   21  TRP21       0.0001
     43  CE3       -5.5290    0.6400   -5.5430 C.ar   21  TRP21       0.0012
     44  CD2       -6.2440    1.5830   -6.3190 C.ar   21  TRP21       0.0152
     45  C         -4.7460    5.5030   -5.9410 C.2    21  TRP21       0.3845
     46  O         -5.6740    6.3580   -6.0770 O.co2  21  TRP21      -0.2437
     47  OXT       -3.7150    5.4030   -6.6310 O.co2  21  TRP21      -0.2437
@<TRIPOS>BOND
     1    38    39   ar
     2    38    37   ar
     3    40    39   ar
     4    40    41   ar
     5    39    44   ar
     6    41    42   ar
     7    37    36   ar
     8    47    45   ar
     9    44    36   ar
    10    44    43   ar
    11    36    35    1
    12    46    45   ar
    13    45    34    1
    14    42    43   ar
    15    35    34    1
    16    34    33    1
    17    33    31   am
    18     5     4    1
    19     8     7    2
    20    32    31    2
    21    31    26    1
    22     7     2    1
    23     7     9   am
    24     2     1    1
    25     2     3    1
    26     4     3    1
    27     4     6    1
    28    26    27    1
    29    26    25    1
    30    27    29    1
    31    27    28    1
    32     9    10    1
    33    30    29    1
    34    10    15    1
    35    10    11    1
    36    16    15    2
    37    25    23   am
    38    15    17   am
    39    13    12   ar
    40    11    12    1
    41    23    24    2
    42    23    18    1
    43    12    14   ar
    44    17    18    1
    45    18    19    1
    46    19    20    1
    47    19    21    1
    48    21    22    1
