@<TRIPOS>MOLECULE
../1EDN/PCA3_17-21_NOBACKBONE.pdb
 26 23 0 0 0
SMALL
GASTEIGER

@<TRIPOS>ATOM
      1  CB        -5.7360   -1.8160   -1.1010 C.3    17  LEU17       0.0000
      2  CG        -6.9950   -2.5690   -1.5730 C.3    17  LEU17       0.0000
      3  CD1       -6.7530   -3.1800   -3.0080 C.3    17  LEU17       0.0000
      4  CD2       -7.2580   -3.7400   -0.6960 C.3    17  LEU17       0.0000
      5  CB        -9.1090    1.3410    0.3760 C.3    18  ASP18       0.1258
      6  CG       -10.1470    2.2990    0.9520 C.2    18  ASP18       0.3654
      7  OD1      -11.0720    2.5310    0.1500 O.co2  18  ASP18      -0.2456
      8  OD2      -10.1960    2.6850    2.1610 O.co2  18  ASP18      -0.2456
      9  CB        -5.3140    3.8890    3.0670 C.3    19  ILE19       0.0000
     10  CG2       -4.6600    5.0630    3.8540 C.3    19  ILE19       0.0000
     11  CG1       -6.1440    2.9790    3.9890 C.3    19  ILE19       0.0000
     12  CD1       -5.5170    2.2940    5.2130 C.3    19  ILE19       0.0000
     13  CB        -2.4460    5.7340   -1.0120 C.3    20  ILE20       0.0000
     14  CG2       -2.3030    7.0110   -0.1100 C.3    20  ILE20       0.0000
     15  CG1       -1.4300    4.6170   -0.6100 C.3    20  ILE20       0.0000
     16  CD1        0.0800    4.9990   -0.7110 C.3    20  ILE20       0.0000
     17  CB        -6.2680    3.7450   -4.8170 C.3    21  TRP21       0.0327
     18  CG        -6.5090    2.9660   -6.0890 C.ar   21  TRP21      -0.0013
     19  CD1       -7.0550    3.4090   -7.2190 C.ar   21  TRP21       0.0946
     20  NE1       -7.1560    2.4190   -8.1260 N.ar   21  TRP21      -0.2442
     21  CE2       -6.6880    1.2600   -7.6470 C.ar   21  TRP21       0.0810
     22  CZ2       -6.5320   -0.1050   -8.0600 C.ar   21  TRP21       0.0191
     23  CH2       -5.9630   -1.0770   -7.2340 C.ar   21  TRP21       0.0015
     24  CZ3       -5.4330   -0.7150   -5.9030 C.ar   21  TRP21       0.0001
     25  CE3       -5.5290    0.6400   -5.5430 C.ar   21  TRP21       0.0012
     26  CD2       -6.2440    1.5830   -6.3190 C.ar   21  TRP21       0.0152
@<TRIPOS>BOND
     1    20    21   ar
     2    20    19   ar
     3    22    21   ar
     4    22    23   ar
     5    21    26   ar
     6    23    24   ar
     7    19    18   ar
     8    26    18   ar
     9    26    25   ar
    10    18    17    1
    11    24    25   ar
    12     3     2    1
    13     2     1    1
    14     2     4    1
    15    13    15    1
    16    13    14    1
    17    16    15    1
    18     7     6   ar
    19     5     6    1
    20     6     8   ar
    21     9    10    1
    22     9    11    1
    23    11    12    1
@<TRIPOS>MOLECULE
9939443
 43 47 0 0 0
SMALL
GASTEIGER

@<TRIPOS>ATOM
      1 S          -1.1272    0.1339   -4.5967 S.O2    1  LIG11       0.0908
      2 O          -4.2724   -1.2867   -4.8138 O.3     1  LIG11      -0.4435
      3 O          -2.0305    0.2433   -5.7184 O.2     1  LIG11      -0.1484
      4 O           0.2733   -0.1669   -4.8179 O.2     1  LIG11      -0.1484
      5 O          -6.5660   -0.8499   -2.9942 O.3     1  LIG11      -0.4715
      6 O          -5.0991   -2.5655   -7.2582 O.3     1  LIG11      -0.4914
      7 O          -5.2874   -3.7046   -2.5739 O.3     1  LIG11      -0.3917
      8 N          -1.7103   -1.0456   -3.5322 N.pl3   1  LIG11      -0.1950
      9 N          -0.3703    1.7591   -2.6231 N.ar    1  LIG11      -0.2351
     10 N          -2.7570   -0.4062   -1.6378 N.ar    1  LIG11      -0.2073
     11 N          -5.1054   -0.2805   -1.3736 N.ar    1  LIG11      -0.1899
     12 N          -3.2588    1.4284    3.0383 N.ar    1  LIG11      -0.2552
     13 N          -0.5709    1.8231    4.0104 N.ar    1  LIG11      -0.5621
     14 N           0.2756    1.2982    1.9807 N.ar    1  LIG11      -0.1535
     15 N           0.7626    1.9025    3.9372 N.ar    1  LIG11      -0.3597
     16 N           1.3071    1.6079    2.7523 N.ar    1  LIG11      -0.0878
     17 C          -1.2428    5.2898   -1.4603 C.3     1  LIG11      -0.0201
     18 C          -1.2670    3.9844   -2.2289 C.ar    1  LIG11      -0.0266
     19 C          -1.5615    5.0853    0.0215 C.3     1  LIG11      -0.0586
     20 C           0.0915    6.0187   -1.6402 C.3     1  LIG11      -0.0586
     21 C          -1.2320    1.6661   -3.6652 C.ar    1  LIG11       0.1969
     22 C          -2.1632    3.8135   -3.2923 C.ar    1  LIG11      -0.0535
     23 C          -0.4005    2.9270   -1.9398 C.ar    1  LIG11       0.0332
     24 C          -2.1458    2.6393   -4.0363 C.ar    1  LIG11      -0.0160
     25 C          -2.9572   -0.7868   -2.9062 C.ar    1  LIG11       0.1882
     26 C          -4.1924   -0.8955   -3.5141 C.ar    1  LIG11       0.2307
     27 C          -5.2517   -0.7082   -2.6473 C.ar    1  LIG11       0.2641
     28 C          -3.8528   -0.1328   -0.9193 C.ar    1  LIG11       0.1659
     29 C          -3.6549    0.3942    0.4419 C.ar    1  LIG11       0.0227
     30 C          -5.0597   -0.6070   -5.7202 C.ar    1  LIG11       0.1702
     31 C          -2.3656    0.6510    0.9433 C.ar    1  LIG11      -0.0252
     32 C          -4.7345    0.6765    1.2877 C.ar    1  LIG11      -0.0328
     33 C          -6.9569   -2.1628   -3.4239 C.3     1  LIG11       0.1143
     34 C          -5.4294   -1.2843   -6.8962 C.ar    1  LIG11       0.1621
     35 C          -2.2032    1.1597    2.2297 C.ar    1  LIG11       0.0708
     36 C          -5.4967    0.7128   -5.5250 C.ar    1  LIG11      -0.0157
     37 C          -4.4923    1.1822    2.5529 C.ar    1  LIG11       0.0289
     38 C          -6.6438   -3.2844   -2.4329 C.3     1  LIG11       0.0783
     39 C          -6.2866   -0.6578   -7.8104 C.ar    1  LIG11      -0.0163
     40 C          -6.3433    1.3276   -6.4504 C.ar    1  LIG11      -0.0581
     41 C          -6.7449    0.6396   -7.5896 C.ar    1  LIG11      -0.0581
     42 C          -0.8615    1.4287    2.7544 C.ar    1  LIG11       0.0207
     43 C          -3.8596   -3.0785   -6.7831 C.3     1  LIG11       0.0790
@<TRIPOS>BOND
     1     1    21    1
     2     1     8    1
     3     1     4    2
     4     1     3    2
     5     2    26    1
     6     2    30    1
     7     5    27    1
     8     5    33    1
     9     6    34    1
    10     6    43    1
    11     7    38    1
    12     8    25    1
    13     9    23   ar
    14     9    21   ar
    15    10    25   ar
    16    10    28   ar
    17    11    27   ar
    18    11    28   ar
    19    12    37   ar
    20    12    35   ar
    21    13    15   ar
    22    13    42   ar
    23    14    42   ar
    24    14    16   ar
    25    15    16   ar
    26    17    18    1
    27    17    20    1
    28    17    19    1
    29    18    23   ar
    30    18    22   ar
    31    21    24   ar
    32    22    24   ar
    33    25    26   ar
    34    26    27   ar
    35    28    29    1
    36    29    31   ar
    37    29    32   ar
    38    30    36   ar
    39    30    34   ar
    40    31    35   ar
    41    32    37   ar
    42    33    38    1
    43    34    39   ar
    44    35    42    1
    45    36    40   ar
    46    39    41   ar
    47    40    41   ar
@<TRIPOS>MOLECULE
../1EDN/PCA3_17-21.pdb
 47 48 0 0 0
SMALL
GASTEIGER

@<TRIPOS>ATOM
      1  N         -4.2370    0.0490   -1.5930 N.3    17  LEU17      -0.1231
      2  CA        -5.5250   -0.5610   -1.9200 C.3    17  LEU17       0.1693
      3  CB        -5.7360   -1.8160   -1.1010 C.3    17  LEU17       0.0284
      4  CG        -6.9950   -2.5690   -1.5730 C.3    17  LEU17       0.0019
      5  CD1       -6.7530   -3.1800   -3.0080 C.3    17  LEU17       0.0001
      6  CD2       -7.2580   -3.7400   -0.6960 C.3    17  LEU17       0.0001
      7  C         -6.6810    0.4320   -1.9250 C.2    17  LEU17       0.2592
      8  O         -7.3270    0.6200   -2.9560 O.2    17  LEU17      -0.2718
      9  N         -6.9500    1.1080   -0.7900 N.am   18  ASP18      -0.1960
     10  CA        -8.0880    2.0070   -0.5710 C.3    18  ASP18       0.1840
     11  CB        -9.1090    1.3410    0.3760 C.3    18  ASP18       0.1450
     12  CG       -10.1470    2.2990    0.9520 C.2    18  ASP18       0.3671
     13  OD1      -11.0720    2.5310    0.1500 O.co2  18  ASP18      -0.2456
     14  OD2      -10.1960    2.6850    2.1610 O.co2  18  ASP18      -0.2456
     15  C         -7.6280    3.3500    0.0060 C.2    18  ASP18       0.2622
     16  O         -7.9950    4.4650   -0.3580 O.2    18  ASP18      -0.2715
     17  N         -6.8140    3.2050    1.0390 N.am   19  ILE19      -0.1963
     18  CA        -6.1800    4.3790    1.8160 C.3    19  ILE19       0.1727
     19  CB        -5.3140    3.8890    3.0670 C.3    19  ILE19       0.0290
     20  CG2       -4.6600    5.0630    3.8540 C.3    19  ILE19       0.0023
     21  CG1       -6.1440    2.9790    3.9890 C.3    19  ILE19       0.0022
     22  CD1       -5.5170    2.2940    5.2130 C.3    19  ILE19       0.0001
     23  C         -5.2670    5.2520    0.8640 C.2    19  ILE19       0.2616
     24  O         -5.3920    6.4650    0.9090 O.2    19  ILE19      -0.2715
     25  N         -4.4890    4.6060    0.0020 N.am   20  ILE20      -0.1963
     26  CA        -3.9690    5.2910   -1.1850 C.3    20  ILE20       0.1727
     27  CB        -2.4460    5.7340   -1.0120 C.3    20  ILE20       0.0290
     28  CG2       -2.3030    7.0110   -0.1100 C.3    20  ILE20       0.0023
     29  CG1       -1.4300    4.6170   -0.6100 C.3    20  ILE20       0.0022
     30  CD1        0.0800    4.9990   -0.7110 C.3    20  ILE20       0.0001
     31  C         -4.1660    4.3690   -2.4130 C.2    20  ILE20       0.2617
     32  O         -3.9200    3.1710   -2.5010 O.2    20  ILE20      -0.2715
     33  N         -4.6410    5.0460   -3.5090 N.am   21  TRP21      -0.1938
     34  CA        -4.8980    4.4430   -4.8120 C.3    21  TRP21       0.2021
     35  CB        -6.2680    3.7450   -4.8170 C.3    21  TRP21       0.0612
     36  CG        -6.5090    2.9660   -6.0890 C.ar   21  TRP21       0.0007
     37  CD1       -7.0550    3.4090   -7.2190 C.ar   21  TRP21       0.0946
     38  NE1       -7.1560    2.4190   -8.1260 N.ar   21  TRP21      -0.2442
     39  CE2       -6.6880    1.2600   -7.6470 C.ar   21  TRP21       0.0810
     40  CZ2       -6.5320   -0.1050   -8.0600 C.ar   21  TRP21       0.0191
     41  CH2       -5.9630   -1.0770   -7.2340 C.ar   21  TRP21       0.0015
     42  CZ3       -5.4330   -0.7150   -5.9030 C.ar   21  TRP21       0.0001
     43  CE3       -5.5290    0.6400   -5.5430 C.ar   21  TRP21       0.0012
     44  CD2       -6.2440    1.5830   -6.3190 C.ar   21  TRP21       0.0152
     45  C         -4.7460    5.5030   -5.9410 C.2    21  TRP21       0.3845
     46  O         -5.6740    6.3580   -6.0770 O.co2  21  TRP21      -0.2437
     47  OXT       -3.7150    5.4030   -6.6310 O.co2  21  TRP21      -0.2437
@<TRIPOS>BOND
     1    38    39   ar
     2    38    37   ar
     3    40    39   ar
     4    40    41   ar
     5    39    44   ar
     6    41    42   ar
     7    37    36   ar
     8    47    45   ar
     9    44    36   ar
    10    44    43   ar
    11    36    35    1
    12    46    45   ar
    13    45    34    1
    14    42    43   ar
    15    35    34    1
    16    34    33    1
    17    33    31   am
    18     5     4    1
    19     8     7    2
    20    32    31    2
    21    31    26    1
    22     7     2    1
    23     7     9   am
    24     2     1    1
    25     2     3    1
    26     4     3    1
    27     4     6    1
    28    26    27    1
    29    26    25    1
    30    27    29    1
    31    27    28    1
    32     9    10    1
    33    30    29    1
    34    10    15    1
    35    10    11    1
    36    16    15    2
    37    25    23   am
    38    15    17   am
    39    13    12   ar
    40    11    12    1
    41    23    24    2
    42    23    18    1
    43    12    14   ar
    44    17    18    1
    45    18    19    1
    46    19    20    1
    47    19    21    1
    48    21    22    1
