@<TRIPOS>MOLECULE
../1EDN/PCA3_17-21_NOBACKBONE.pdb
 26 23 0 0 0
SMALL
GASTEIGER

@<TRIPOS>ATOM
      1  CB        -5.7360   -1.8160   -1.1010 C.3    17  LEU17       0.0000
      2  CG        -6.9950   -2.5690   -1.5730 C.3    17  LEU17       0.0000
      3  CD1       -6.7530   -3.1800   -3.0080 C.3    17  LEU17       0.0000
      4  CD2       -7.2580   -3.7400   -0.6960 C.3    17  LEU17       0.0000
      5  CB        -9.1090    1.3410    0.3760 C.3    18  ASP18       0.1258
      6  CG       -10.1470    2.2990    0.9520 C.2    18  ASP18       0.3654
      7  OD1      -11.0720    2.5310    0.1500 O.co2  18  ASP18      -0.2456
      8  OD2      -10.1960    2.6850    2.1610 O.co2  18  ASP18      -0.2456
      9  CB        -5.3140    3.8890    3.0670 C.3    19  ILE19       0.0000
     10  CG2       -4.6600    5.0630    3.8540 C.3    19  ILE19       0.0000
     11  CG1       -6.1440    2.9790    3.9890 C.3    19  ILE19       0.0000
     12  CD1       -5.5170    2.2940    5.2130 C.3    19  ILE19       0.0000
     13  CB        -2.4460    5.7340   -1.0120 C.3    20  ILE20       0.0000
     14  CG2       -2.3030    7.0110   -0.1100 C.3    20  ILE20       0.0000
     15  CG1       -1.4300    4.6170   -0.6100 C.3    20  ILE20       0.0000
     16  CD1        0.0800    4.9990   -0.7110 C.3    20  ILE20       0.0000
     17  CB        -6.2680    3.7450   -4.8170 C.3    21  TRP21       0.0327
     18  CG        -6.5090    2.9660   -6.0890 C.ar   21  TRP21      -0.0013
     19  CD1       -7.0550    3.4090   -7.2190 C.ar   21  TRP21       0.0946
     20  NE1       -7.1560    2.4190   -8.1260 N.ar   21  TRP21      -0.2442
     21  CE2       -6.6880    1.2600   -7.6470 C.ar   21  TRP21       0.0810
     22  CZ2       -6.5320   -0.1050   -8.0600 C.ar   21  TRP21       0.0191
     23  CH2       -5.9630   -1.0770   -7.2340 C.ar   21  TRP21       0.0015
     24  CZ3       -5.4330   -0.7150   -5.9030 C.ar   21  TRP21       0.0001
     25  CE3       -5.5290    0.6400   -5.5430 C.ar   21  TRP21       0.0012
     26  CD2       -6.2440    1.5830   -6.3190 C.ar   21  TRP21       0.0152
@<TRIPOS>BOND
     1    20    21   ar
     2    20    19   ar
     3    22    21   ar
     4    22    23   ar
     5    21    26   ar
     6    23    24   ar
     7    19    18   ar
     8    26    18   ar
     9    26    25   ar
    10    18    17    1
    11    24    25   ar
    12     3     2    1
    13     2     1    1
    14     2     4    1
    15    13    15    1
    16    13    14    1
    17    16    15    1
    18     7     6   ar
    19     5     6    1
    20     6     8   ar
    21     9    10    1
    22     9    11    1
    23    11    12    1
@<TRIPOS>MOLECULE
11672244
 53 58 0 0 0
SMALL
GASTEIGER

@<TRIPOS>ATOM
      1 O          -6.9583    2.1829   -1.3632 O.3     1  LIG11      -0.4607
      2 O          -2.7330    6.8208    4.9603 O.2     1  LIG11      -0.2968
      3 O          -8.8009   -1.8635    2.1588 O.co2   1  LIG11      -0.5492
      4 O         -10.8065   -1.2815    1.2705 O.co2   1  LIG11      -0.5492
      5 O          -4.6969    1.7568   -1.5502 O.2     1  LIG11      -0.2456
      6 O          -6.5982   -2.2154   -7.4606 O.3     1  LIG11      -0.5067
      7 O          -3.7472    3.3610   -4.9526 O.2     1  LIG11      -0.2705
      8 O          -4.2509    7.8772   -7.0853 O.co2   1  LIG11      -0.5452
      9 O          -2.1865    8.0617   -6.1215 O.co2   1  LIG11      -0.5452
     10 N          -5.3168    3.1593   -6.6749 N.am    1  LIG11      -0.2815
     11 C          -7.1331    2.4745    2.6016 C.3     1  LIG11      -0.0160
     12 C          -5.5850    2.4221    2.9020 C.3     1  LIG11      -0.0256
     13 C          -7.4066    1.7728    1.1265 C.3     1  LIG11       0.0318
     14 C          -5.0219    3.3493    4.0769 C.3     1  LIG11      -0.0243
     15 C          -5.5871    4.7952    3.8506 C.3     1  LIG11      -0.0235
     16 C          -7.6256    3.9482    2.6276 C.3     1  LIG11      -0.0461
     17 C          -6.7374    0.3747    1.0826 C.2     1  LIG11      -0.0596
     18 C          -7.2800   -0.6392    0.0501 C.3     1  LIG11      -0.0080
     19 C          -7.1293    4.7687    3.8184 C.3     1  LIG11      -0.0483
     20 C          -8.9479    1.6604    0.8863 C.3     1  LIG11      -0.0392
     21 C          -5.0998    0.9599    2.9442 C.3     1  LIG11      -0.0306
     22 C          -8.8240   -0.7350    0.0256 C.3     1  LIG11       0.0167
     23 C          -4.9808    5.9371    4.7348 C.3     1  LIG11       0.0267
     24 C          -3.4755    3.4448    3.9221 C.3     1  LIG11      -0.0404
     25 C          -9.3940    0.6828   -0.2000 C.3     1  LIG11      -0.0408
     26 C          -7.9255    1.7075    3.7067 C.3     1  LIG11      -0.0584
     27 C          -5.7169    0.0687    1.9108 C.2     1  LIG11      -0.0835
     28 C          -6.7917    2.6728   -0.0218 C.3     1  LIG11       0.1025
     29 C          -5.3248    2.7896    5.4870 C.3     1  LIG11      -0.0590
     30 C          -6.5997   -2.0348    0.0223 C.3     1  LIG11      -0.0405
     31 C          -9.2751   -1.6267   -1.1605 C.3     1  LIG11      -0.0412
     32 C          -2.8118    4.4568    4.8440 C.3     1  LIG11       0.0069
     33 C          -7.0813   -2.9522   -1.1272 C.3     1  LIG11      -0.0343
     34 C          -3.4467    5.8256    4.7938 C.2     1  LIG11       0.1392
     35 C          -8.6200   -3.0089   -1.1573 C.3     1  LIG11      -0.0470
     36 C          -5.5092    5.9873    6.1761 C.3     1  LIG11      -0.0528
     37 C          -5.3046    7.3080    4.0809 C.3     1  LIG11      -0.0528
     38 C          -9.5401   -1.3456    1.2769 C.2     1  LIG11       0.0485
     39 C          -6.5321   -4.3734   -0.8956 C.3     1  LIG11      -0.0598
     40 C          -6.5312   -2.4576   -2.4801 C.3     1  LIG11      -0.0598
     41 C          -5.8221    1.8202   -2.0132 C.2     1  LIG11       0.3320
     42 C          -6.1957    1.4967   -3.4065 C.2     1  LIG11       0.0231
     43 C          -5.2423    1.1604   -4.2865 C.2     1  LIG11      -0.0460
     44 C          -5.5459    0.8425   -5.6834 C.ar    1  LIG11      -0.0001
     45 C          -5.6180    1.7776   -6.7355 C.ar    1  LIG11       0.0411
     46 C          -5.8729   -0.5063   -5.9349 C.ar    1  LIG11      -0.0113
     47 C          -6.0576    1.3349   -7.9997 C.ar    1  LIG11      -0.0364
     48 C          -6.2758   -0.9158   -7.2010 C.ar    1  LIG11       0.1175
     49 C          -6.3736   -0.0036   -8.2361 C.ar    1  LIG11      -0.0184
     50 C          -4.4659    3.8330   -5.8194 C.2     1  LIG11       0.2411
     51 C          -4.4133    5.2756   -6.1827 C.2     1  LIG11       0.0021
     52 C          -3.3372    6.0305   -5.9182 C.2     1  LIG11      -0.0344
     53 C          -3.2614    7.4676   -6.4140 C.2     1  LIG11       0.0647
@<TRIPOS>BOND
     1     1    41    1
     2     1    28    1
     3     2    34    2
     4     3    38   ar
     5     4    38   ar
     6     5    41    2
     7     6    48    1
     8     7    50    2
     9     8    53   ar
    10     9    53   ar
    11    10    45    1
    12    10    50   am
    13    11    16    1
    14    11    12    1
    15    11    26    1
    16    11    13    1
    17    12    14    1
    18    13    20    1
    19    13    17    1
    20    13    28    1
    21    14    15    1
    22    14    24    1
    23    14    29    1
    24    15    19    1
    25    15    23    1
    26    16    19    1
    27    17    18    1
    28    17    27    2
    29    18    30    1
    30    18    22    1
    31    20    25    1
    32    21    27    1
    33    21    12    1
    34    22    31    1
    35    22    25    1
    36    22    38    1
    37    23    34    1
    38    23    37    1
    39    23    36    1
    40    24    32    1
    41    30    33    1
    42    31    35    1
    43    32    34    1
    44    33    35    1
    45    33    40    1
    46    33    39    1
    47    41    42    1
    48    42    43    2
    49    43    44    1
    50    44    46   ar
    51    44    45   ar
    52    45    47   ar
    53    46    48   ar
    54    47    49   ar
    55    48    49   ar
    56    50    51    1
    57    51    52    2
    58    52    53    1
@<TRIPOS>MOLECULE
../1EDN/PCA3_17-21.pdb
 47 48 0 0 0
SMALL
GASTEIGER

@<TRIPOS>ATOM
      1  N         -4.2370    0.0490   -1.5930 N.3    17  LEU17      -0.1231
      2  CA        -5.5250   -0.5610   -1.9200 C.3    17  LEU17       0.1693
      3  CB        -5.7360   -1.8160   -1.1010 C.3    17  LEU17       0.0284
      4  CG        -6.9950   -2.5690   -1.5730 C.3    17  LEU17       0.0019
      5  CD1       -6.7530   -3.1800   -3.0080 C.3    17  LEU17       0.0001
      6  CD2       -7.2580   -3.7400   -0.6960 C.3    17  LEU17       0.0001
      7  C         -6.6810    0.4320   -1.9250 C.2    17  LEU17       0.2592
      8  O         -7.3270    0.6200   -2.9560 O.2    17  LEU17      -0.2718
      9  N         -6.9500    1.1080   -0.7900 N.am   18  ASP18      -0.1960
     10  CA        -8.0880    2.0070   -0.5710 C.3    18  ASP18       0.1840
     11  CB        -9.1090    1.3410    0.3760 C.3    18  ASP18       0.1450
     12  CG       -10.1470    2.2990    0.9520 C.2    18  ASP18       0.3671
     13  OD1      -11.0720    2.5310    0.1500 O.co2  18  ASP18      -0.2456
     14  OD2      -10.1960    2.6850    2.1610 O.co2  18  ASP18      -0.2456
     15  C         -7.6280    3.3500    0.0060 C.2    18  ASP18       0.2622
     16  O         -7.9950    4.4650   -0.3580 O.2    18  ASP18      -0.2715
     17  N         -6.8140    3.2050    1.0390 N.am   19  ILE19      -0.1963
     18  CA        -6.1800    4.3790    1.8160 C.3    19  ILE19       0.1727
     19  CB        -5.3140    3.8890    3.0670 C.3    19  ILE19       0.0290
     20  CG2       -4.6600    5.0630    3.8540 C.3    19  ILE19       0.0023
     21  CG1       -6.1440    2.9790    3.9890 C.3    19  ILE19       0.0022
     22  CD1       -5.5170    2.2940    5.2130 C.3    19  ILE19       0.0001
     23  C         -5.2670    5.2520    0.8640 C.2    19  ILE19       0.2616
     24  O         -5.3920    6.4650    0.9090 O.2    19  ILE19      -0.2715
     25  N         -4.4890    4.6060    0.0020 N.am   20  ILE20      -0.1963
     26  CA        -3.9690    5.2910   -1.1850 C.3    20  ILE20       0.1727
     27  CB        -2.4460    5.7340   -1.0120 C.3    20  ILE20       0.0290
     28  CG2       -2.3030    7.0110   -0.1100 C.3    20  ILE20       0.0023
     29  CG1       -1.4300    4.6170   -0.6100 C.3    20  ILE20       0.0022
     30  CD1        0.0800    4.9990   -0.7110 C.3    20  ILE20       0.0001
     31  C         -4.1660    4.3690   -2.4130 C.2    20  ILE20       0.2617
     32  O         -3.9200    3.1710   -2.5010 O.2    20  ILE20      -0.2715
     33  N         -4.6410    5.0460   -3.5090 N.am   21  TRP21      -0.1938
     34  CA        -4.8980    4.4430   -4.8120 C.3    21  TRP21       0.2021
     35  CB        -6.2680    3.7450   -4.8170 C.3    21  TRP21       0.0612
     36  CG        -6.5090    2.9660   -6.0890 C.ar   21  TRP21       0.0007
     37  CD1       -7.0550    3.4090   -7.2190 C.ar   21  TRP21       0.0946
     38  NE1       -7.1560    2.4190   -8.1260 N.ar   21  TRP21      -0.2442
     39  CE2       -6.6880    1.2600   -7.6470 C.ar   21  TRP21       0.0810
     40  CZ2       -6.5320   -0.1050   -8.0600 C.ar   21  TRP21       0.0191
     41  CH2       -5.9630   -1.0770   -7.2340 C.ar   21  TRP21       0.0015
     42  CZ3       -5.4330   -0.7150   -5.9030 C.ar   21  TRP21       0.0001
     43  CE3       -5.5290    0.6400   -5.5430 C.ar   21  TRP21       0.0012
     44  CD2       -6.2440    1.5830   -6.3190 C.ar   21  TRP21       0.0152
     45  C         -4.7460    5.5030   -5.9410 C.2    21  TRP21       0.3845
     46  O         -5.6740    6.3580   -6.0770 O.co2  21  TRP21      -0.2437
     47  OXT       -3.7150    5.4030   -6.6310 O.co2  21  TRP21      -0.2437
@<TRIPOS>BOND
     1    38    39   ar
     2    38    37   ar
     3    40    39   ar
     4    40    41   ar
     5    39    44   ar
     6    41    42   ar
     7    37    36   ar
     8    47    45   ar
     9    44    36   ar
    10    44    43   ar
    11    36    35    1
    12    46    45   ar
    13    45    34    1
    14    42    43   ar
    15    35    34    1
    16    34    33    1
    17    33    31   am
    18     5     4    1
    19     8     7    2
    20    32    31    2
    21    31    26    1
    22     7     2    1
    23     7     9   am
    24     2     1    1
    25     2     3    1
    26     4     3    1
    27     4     6    1
    28    26    27    1
    29    26    25    1
    30    27    29    1
    31    27    28    1
    32     9    10    1
    33    30    29    1
    34    10    15    1
    35    10    11    1
    36    16    15    2
    37    25    23   am
    38    15    17   am
    39    13    12   ar
    40    11    12    1
    41    23    24    2
    42    23    18    1
    43    12    14   ar
    44    17    18    1
    45    18    19    1
    46    19    20    1
    47    19    21    1
    48    21    22    1
