@<TRIPOS>MOLECULE
../1EDN/PCA3_17-21_NOBACKBONE.pdb
 26 23 0 0 0
SMALL
GASTEIGER

@<TRIPOS>ATOM
      1  CB        -5.7360   -1.8160   -1.1010 C.3    17  LEU17       0.0000
      2  CG        -6.9950   -2.5690   -1.5730 C.3    17  LEU17       0.0000
      3  CD1       -6.7530   -3.1800   -3.0080 C.3    17  LEU17       0.0000
      4  CD2       -7.2580   -3.7400   -0.6960 C.3    17  LEU17       0.0000
      5  CB        -9.1090    1.3410    0.3760 C.3    18  ASP18       0.1258
      6  CG       -10.1470    2.2990    0.9520 C.2    18  ASP18       0.3654
      7  OD1      -11.0720    2.5310    0.1500 O.co2  18  ASP18      -0.2456
      8  OD2      -10.1960    2.6850    2.1610 O.co2  18  ASP18      -0.2456
      9  CB        -5.3140    3.8890    3.0670 C.3    19  ILE19       0.0000
     10  CG2       -4.6600    5.0630    3.8540 C.3    19  ILE19       0.0000
     11  CG1       -6.1440    2.9790    3.9890 C.3    19  ILE19       0.0000
     12  CD1       -5.5170    2.2940    5.2130 C.3    19  ILE19       0.0000
     13  CB        -2.4460    5.7340   -1.0120 C.3    20  ILE20       0.0000
     14  CG2       -2.3030    7.0110   -0.1100 C.3    20  ILE20       0.0000
     15  CG1       -1.4300    4.6170   -0.6100 C.3    20  ILE20       0.0000
     16  CD1        0.0800    4.9990   -0.7110 C.3    20  ILE20       0.0000
     17  CB        -6.2680    3.7450   -4.8170 C.3    21  TRP21       0.0327
     18  CG        -6.5090    2.9660   -6.0890 C.ar   21  TRP21      -0.0013
     19  CD1       -7.0550    3.4090   -7.2190 C.ar   21  TRP21       0.0946
     20  NE1       -7.1560    2.4190   -8.1260 N.ar   21  TRP21      -0.2442
     21  CE2       -6.6880    1.2600   -7.6470 C.ar   21  TRP21       0.0810
     22  CZ2       -6.5320   -0.1050   -8.0600 C.ar   21  TRP21       0.0191
     23  CH2       -5.9630   -1.0770   -7.2340 C.ar   21  TRP21       0.0015
     24  CZ3       -5.4330   -0.7150   -5.9030 C.ar   21  TRP21       0.0001
     25  CE3       -5.5290    0.6400   -5.5430 C.ar   21  TRP21       0.0012
     26  CD2       -6.2440    1.5830   -6.3190 C.ar   21  TRP21       0.0152
@<TRIPOS>BOND
     1    20    21   ar
     2    20    19   ar
     3    22    21   ar
     4    22    23   ar
     5    21    26   ar
     6    23    24   ar
     7    19    18   ar
     8    26    18   ar
     9    26    25   ar
    10    18    17    1
    11    24    25   ar
    12     3     2    1
    13     2     1    1
    14     2     4    1
    15    13    15    1
    16    13    14    1
    17    16    15    1
    18     7     6   ar
    19     5     6    1
    20     6     8   ar
    21     9    10    1
    22     9    11    1
    23    11    12    1
@<TRIPOS>MOLECULE
123882
 66 71 0 0 0
SMALL
GASTEIGER

@<TRIPOS>ATOM
      1 S          -6.7256    8.6958    1.1505 S.2     3  UNK33      -0.0993
      2 O          -7.0039   -1.3455    4.4053 O.2     1  UNK11      -0.2755
      3 O          -1.7690    4.0452   -3.3489 O.2     4  LEU44      -0.2738
      4 O          -7.1052    1.2887    1.8748 O.2     1  UNK11      -0.2737
      5 O          -4.3457    2.0762   -0.8081 O.2     5  TRP55      -0.2738
      6 O          -5.5000   -1.4118   -0.4016 O.2     6  ASP66      -0.2738
      7 O          -4.5449    7.1199   -1.1856 O.2     3  UNK33      -0.2734
      8 O          -3.8873    4.0457    1.9241 O.2     2  ASP22      -0.2737
      9 OD1        -1.4175   -0.8840   -3.0835 O.co2   6  ASP66      -0.5497
     10 OD2        -0.3513   -1.9329   -1.3500 O.co2   6  ASP66      -0.5497
     11 OD1        -6.4679    2.3805    5.9415 O.co2   2  ASP22      -0.5497
     12 OD2        -6.3660    4.5809    6.5272 O.co2   2  ASP22      -0.5497
     13 N          -5.3321   -1.1545    5.9637 N.am    1  UNK11      -0.2984
     14 N          -4.3692   -0.5919    8.7126 N.pl3   1  UNK11      -0.3269
     15 N          -4.3469   -0.3021    1.2544 N.am    1  UNK11      -0.3020
     16 N          -3.9507    3.8456   -2.6724 N.am    5  TRP55      -0.3022
     17 N          -3.5928    5.2166   -0.4117 N.am    4  LEU44      -0.3022
     18 N          -3.7109    0.3079   -2.1091 N.am    6  ASP66      -0.3021
     19 N          -5.2852    1.8995    3.1192 N.am    2  ASP22      -0.3021
     20 N          -5.9412    4.9485    1.4977 N.am    3  UNK33      -0.2984
     21 NE1        -6.6217   -0.9565   -4.7847 N.ar    5  TRP55      -0.3604
     22 C          -3.9124   -1.1732    6.3270 C.3     1  UNK11       0.0304
     23 C          -6.2728   -0.9703    7.0759 C.3     1  UNK11       0.0304
     24 C          -3.6963   -1.5428    7.8044 C.3     1  UNK11       0.0280
     25 C          -5.6891   -0.0841    8.1973 C.3     1  UNK11       0.0280
     26 C          -5.8184   -1.1415    4.6647 C.2     1  UNK11       0.2179
     27 C          -4.7900   -0.9554    3.5658 C.3     1  UNK11       0.0510
     28 C          -5.4031   -0.4174    2.2704 C.3     1  UNK11       0.1076
     29 CA         -2.4411    5.2469   -1.3199 C.3     4  LEU44       0.0997
     30 CB         -1.1539    4.8365   -0.5740 C.3     4  LEU44      -0.0236
     31 CA         -4.1948    2.4903   -3.1992 C.3     5  TRP55       0.1034
     32 C          -3.6152    0.4554    9.2824 C.ar    1  UNK11       0.0298
     33 CG         -0.5375    5.9183    0.3436 C.3     4  LEU44      -0.0446
     34 CB         -5.5941    2.4431   -3.8244 C.3     5  TRP55       0.0013
     35 C          -2.6572    4.3103   -2.5404 C.2     4  LEU44       0.2340
     36 CA         -3.2975   -0.4829   -0.9519 C.3     6  ASP66       0.1045
     37 C          -6.0482    0.9807    2.4249 C.2     1  UNK11       0.2344
     38 CG         -5.9710    1.1582   -4.4948 C.ar    5  TRP55      -0.0201
     39 C          -4.0924    1.6143   -1.9267 C.2     5  TRP55       0.2343
     40 C          -4.5102   -0.7816   -0.0341 C.2     6  ASP66       0.2343
     41 CA         -5.7326    3.2727    3.3090 C.3     2  ASP22       0.1045
     42 CD2        -1.4198    6.3175    1.5256 C.3     4  LEU44      -0.0626
     43 CD1         0.8084    5.4193    0.8838 C.3     4  LEU44      -0.0626
     44 C          -5.4633    6.2059    0.9204 C.3     3  UNK33       0.1311
     45 C          -4.1390    1.1589   10.3815 C.ar    1  UNK11      -0.0407
     46 C          -2.3663    0.8723    8.7980 C.ar    1  UNK11      -0.0407
     47 CD2        -6.0650    0.8897   -5.9017 C.ar    5  TRP55       0.0029
     48 C          -4.5529    6.2014   -0.3623 C.2     3  UNK33       0.2390
     49 CB         -2.6988   -1.8228   -1.3592 C.3     6  ASP66       0.0138
     50 CD1        -6.3659    0.0037   -3.8481 C.ar    5  TRP55       0.0060
     51 CE2        -6.4887   -0.4336   -6.0487 C.ar    5  TRP55       0.0467
     52 C          -5.0937    4.0974    2.1721 C.2     2  ASP22       0.2345
     53 CB         -5.2183    3.8809    4.6097 C.3     2  ASP22       0.0138
     54 C          -3.4629    2.2411   10.9546 C.ar    1  UNK11      -0.0600
     55 C          -1.6847    1.9560    9.3660 C.ar    1  UNK11      -0.0600
     56 C          -6.6836    7.0585    0.6293 C.ar    3  UNK33       0.0189
     57 CE3        -5.8410    1.6492   -7.0700 C.ar    5  TRP55      -0.0523
     58 C          -2.2349    2.6429   10.4424 C.ar    1  UNK11      -0.0616
     59 CZ2        -6.7029   -1.0316   -7.2971 C.ar    5  TRP55      -0.0378
     60 CG         -1.3555   -1.5196   -1.9909 C.2     6  ASP66       0.0440
     61 CZ3        -6.0565    1.0682   -8.3271 C.ar    5  TRP55      -0.0611
     62 C          -7.8459    6.7184   -0.0421 C.ar    3  UNK33      -0.0493
     63 CH2        -6.4830   -0.2530   -8.4361 C.ar    5  TRP55      -0.0598
     64 CG         -6.1129    3.5800    5.7978 C.2     2  ASP22       0.0440
     65 C          -8.7607    7.8069   -0.1343 C.ar    3  UNK33      -0.0544
     66 C          -8.2685    8.9456    0.4610 C.ar    3  UNK33      -0.0240
@<TRIPOS>BOND
     1     1    56   ar
     2     1    66   ar
     3     2    26    2
     4     3    35    2
     5     4    37    2
     6     5    39    2
     7     6    40    2
     8     7    48    2
     9     8    52    2
    10     9    60   ar
    11    10    60   ar
    12    11    64   ar
    13    12    64   ar
    14    13    22    1
    15    13    23    1
    16    14    24    1
    17    14    25    1
    18    14    32    1
    19    15    28    1
    20    15    40   am
    21    16    35   am
    22    16    31    1
    23    17    48   am
    24    17    29    1
    25    18    39   am
    26    18    36    1
    27    19    37   am
    28    19    41    1
    29    20    52   am
    30    20    44    1
    31    21    50   ar
    32    21    51   ar
    33    22    24    1
    34    23    25    1
    35    26    27    1
    36    26    13   am
    37    28    37    1
    38    28    27    1
    39    29    35    1
    40    29    30    1
    41    30    33    1
    42    31    39    1
    43    31    34    1
    44    32    45   ar
    45    32    46   ar
    46    33    43    1
    47    33    42    1
    48    34    38    1
    49    36    40    1
    50    36    49    1
    51    38    47   ar
    52    38    50   ar
    53    41    52    1
    54    41    53    1
    55    44    48    1
    56    44    56    1
    57    45    54   ar
    58    46    55   ar
    59    47    57   ar
    60    47    51   ar
    61    49    60    1
    62    51    59   ar
    63    53    64    1
    64    54    58   ar
    65    55    58   ar
    66    56    62   ar
    67    57    61   ar
    68    59    63   ar
    69    61    63   ar
    70    62    65   ar
    71    65    66   ar
@<TRIPOS>MOLECULE
../1EDN/PCA3_17-21.pdb
 47 48 0 0 0
SMALL
GASTEIGER

@<TRIPOS>ATOM
      1  N         -4.2370    0.0490   -1.5930 N.3    17  LEU17      -0.1231
      2  CA        -5.5250   -0.5610   -1.9200 C.3    17  LEU17       0.1693
      3  CB        -5.7360   -1.8160   -1.1010 C.3    17  LEU17       0.0284
      4  CG        -6.9950   -2.5690   -1.5730 C.3    17  LEU17       0.0019
      5  CD1       -6.7530   -3.1800   -3.0080 C.3    17  LEU17       0.0001
      6  CD2       -7.2580   -3.7400   -0.6960 C.3    17  LEU17       0.0001
      7  C         -6.6810    0.4320   -1.9250 C.2    17  LEU17       0.2592
      8  O         -7.3270    0.6200   -2.9560 O.2    17  LEU17      -0.2718
      9  N         -6.9500    1.1080   -0.7900 N.am   18  ASP18      -0.1960
     10  CA        -8.0880    2.0070   -0.5710 C.3    18  ASP18       0.1840
     11  CB        -9.1090    1.3410    0.3760 C.3    18  ASP18       0.1450
     12  CG       -10.1470    2.2990    0.9520 C.2    18  ASP18       0.3671
     13  OD1      -11.0720    2.5310    0.1500 O.co2  18  ASP18      -0.2456
     14  OD2      -10.1960    2.6850    2.1610 O.co2  18  ASP18      -0.2456
     15  C         -7.6280    3.3500    0.0060 C.2    18  ASP18       0.2622
     16  O         -7.9950    4.4650   -0.3580 O.2    18  ASP18      -0.2715
     17  N         -6.8140    3.2050    1.0390 N.am   19  ILE19      -0.1963
     18  CA        -6.1800    4.3790    1.8160 C.3    19  ILE19       0.1727
     19  CB        -5.3140    3.8890    3.0670 C.3    19  ILE19       0.0290
     20  CG2       -4.6600    5.0630    3.8540 C.3    19  ILE19       0.0023
     21  CG1       -6.1440    2.9790    3.9890 C.3    19  ILE19       0.0022
     22  CD1       -5.5170    2.2940    5.2130 C.3    19  ILE19       0.0001
     23  C         -5.2670    5.2520    0.8640 C.2    19  ILE19       0.2616
     24  O         -5.3920    6.4650    0.9090 O.2    19  ILE19      -0.2715
     25  N         -4.4890    4.6060    0.0020 N.am   20  ILE20      -0.1963
     26  CA        -3.9690    5.2910   -1.1850 C.3    20  ILE20       0.1727
     27  CB        -2.4460    5.7340   -1.0120 C.3    20  ILE20       0.0290
     28  CG2       -2.3030    7.0110   -0.1100 C.3    20  ILE20       0.0023
     29  CG1       -1.4300    4.6170   -0.6100 C.3    20  ILE20       0.0022
     30  CD1        0.0800    4.9990   -0.7110 C.3    20  ILE20       0.0001
     31  C         -4.1660    4.3690   -2.4130 C.2    20  ILE20       0.2617
     32  O         -3.9200    3.1710   -2.5010 O.2    20  ILE20      -0.2715
     33  N         -4.6410    5.0460   -3.5090 N.am   21  TRP21      -0.1938
     34  CA        -4.8980    4.4430   -4.8120 C.3    21  TRP21       0.2021
     35  CB        -6.2680    3.7450   -4.8170 C.3    21  TRP21       0.0612
     36  CG        -6.5090    2.9660   -6.0890 C.ar   21  TRP21       0.0007
     37  CD1       -7.0550    3.4090   -7.2190 C.ar   21  TRP21       0.0946
     38  NE1       -7.1560    2.4190   -8.1260 N.ar   21  TRP21      -0.2442
     39  CE2       -6.6880    1.2600   -7.6470 C.ar   21  TRP21       0.0810
     40  CZ2       -6.5320   -0.1050   -8.0600 C.ar   21  TRP21       0.0191
     41  CH2       -5.9630   -1.0770   -7.2340 C.ar   21  TRP21       0.0015
     42  CZ3       -5.4330   -0.7150   -5.9030 C.ar   21  TRP21       0.0001
     43  CE3       -5.5290    0.6400   -5.5430 C.ar   21  TRP21       0.0012
     44  CD2       -6.2440    1.5830   -6.3190 C.ar   21  TRP21       0.0152
     45  C         -4.7460    5.5030   -5.9410 C.2    21  TRP21       0.3845
     46  O         -5.6740    6.3580   -6.0770 O.co2  21  TRP21      -0.2437
     47  OXT       -3.7150    5.4030   -6.6310 O.co2  21  TRP21      -0.2437
@<TRIPOS>BOND
     1    38    39   ar
     2    38    37   ar
     3    40    39   ar
     4    40    41   ar
     5    39    44   ar
     6    41    42   ar
     7    37    36   ar
     8    47    45   ar
     9    44    36   ar
    10    44    43   ar
    11    36    35    1
    12    46    45   ar
    13    45    34    1
    14    42    43   ar
    15    35    34    1
    16    34    33    1
    17    33    31   am
    18     5     4    1
    19     8     7    2
    20    32    31    2
    21    31    26    1
    22     7     2    1
    23     7     9   am
    24     2     1    1
    25     2     3    1
    26     4     3    1
    27     4     6    1
    28    26    27    1
    29    26    25    1
    30    27    29    1
    31    27    28    1
    32     9    10    1
    33    30    29    1
    34    10    15    1
    35    10    11    1
    36    16    15    2
    37    25    23   am
    38    15    17   am
    39    13    12   ar
    40    11    12    1
    41    23    24    2
    42    23    18    1
    43    12    14   ar
    44    17    18    1
    45    18    19    1
    46    19    20    1
    47    19    21    1
    48    21    22    1
