@<TRIPOS>MOLECULE
../1EDN/XRAY_17-21_NOBACKBONE.pdb
 26 23 0 0 0
SMALL
GASTEIGER

@<TRIPOS>ATOM
      1  CB         5.6570  -21.0170   -0.8850 C.3    17  LEU17       0.0000
      2  CG         5.4050  -22.5400   -0.8470 C.3    17  LEU17       0.0000
      3  CD1        6.1110  -23.2140    0.3150 C.3    17  LEU17       0.0000
      4  CD2        3.9240  -22.7940   -0.7690 C.3    17  LEU17       0.0000
      5  CB         3.8720  -17.2370    1.5730 C.3    18  ASP18       0.0476
      6  CG         2.4440  -17.7210    1.8880 C.2    18  ASP18       0.0507
      7  OD1        1.8320  -18.4410    1.0660 O.co2  18  ASP18      -0.5492
      8  OD2        1.9260  -17.3730    2.9700 O.co2  18  ASP18      -0.5492
      9  CB         7.9140  -14.3690   -1.8400 C.3    19  ILE19       0.0000
     10  CG1        8.8760  -14.8240   -0.7490 C.3    19  ILE19       0.0000
     11  CG2        8.2810  -12.9320   -2.2380 C.3    19  ILE19       0.0000
     12  CD1        9.3280  -13.7050    0.1860 C.3    19  ILE19       0.0000
     13  CB         5.8140  -13.8870   -5.9550 C.3    20  ILE20       0.0000
     14  CG1        5.9530  -12.3980   -5.6400 C.3    20  ILE20       0.0000
     15  CG2        5.1640  -14.0490   -7.3150 C.3    20  ILE20       0.0000
     16  CD1        6.8340  -11.6390   -6.6010 C.3    20  ILE20       0.0000
     17  CB         2.6690  -18.5180   -5.3120 C.3    21  TRP21       0.0327
     18  CG         1.5690  -17.9980   -4.3600 C.ar   21  TRP21      -0.0013
     19  CD1        0.7990  -18.7930   -3.5490 C.ar   21  TRP21       0.0946
     20  CD2        1.2480  -16.6350   -3.9890 C.ar   21  TRP21       0.0152
     21  CE2        0.3020  -16.7070   -2.9250 C.ar   21  TRP21       0.0810
     22  CE3        1.6680  -15.3700   -4.4360 C.ar   21  TRP21       0.0012
     23  NE1        0.0520  -18.0350   -2.6840 N.ar   21  TRP21      -0.2442
     24  CZ2       -0.2230  -15.5590   -2.2950 C.ar   21  TRP21       0.0191
     25  CZ3        1.1420  -14.2140   -3.8060 C.ar   21  TRP21       0.0001
     26  CH2        0.2070  -14.3240   -2.7450 C.ar   21  TRP21       0.0015
@<TRIPOS>BOND
     1    15    13    1
     2    16    14    1
     3    13    14    1
     4    17    18    1
     5    22    20   ar
     6    22    25   ar
     7    18    20   ar
     8    18    19   ar
     9    20    21   ar
    10    25    26   ar
    11    19    23   ar
    12    21    23   ar
    13    21    24   ar
    14    26    24   ar
    15    11     9    1
    16     9    10    1
    17     1     2    1
    18     2     4    1
    19     2     3    1
    20    10    12    1
    21     7     6   ar
    22     5     6    1
    23     6     8   ar
@<TRIPOS>MOLECULE
123882
 66 71 0 0 0
SMALL
GASTEIGER

@<TRIPOS>ATOM
      1 S           9.7784  -21.1096   -3.4191 S.2     3  UNK33      -0.0993
      2 O           9.9233  -11.0239  -10.3427 O.2     1  UNK11      -0.2755
      3 O           5.8423  -14.1344   -1.7350 O.2     4  LEU44      -0.2738
      4 O           9.6732  -15.8991   -9.3994 O.2     1  UNK11      -0.2737
      5 O           7.2869  -14.6331   -5.5608 O.2     5  TRP55      -0.2738
      6 O           6.8141  -13.4068   -8.7182 O.2     6  ASP66      -0.2738
      7 O           7.8791  -18.3637   -2.1466 O.2     3  UNK33      -0.2734
      8 O          10.6010  -15.8920   -4.5571 O.2     2  ASP22      -0.2737
      9 OD1         5.0748  -10.4985   -5.1708 O.co2   6  ASP66      -0.5497
     10 OD2         6.7975   -9.0233   -5.4822 O.co2   6  ASP66      -0.5497
     11 OD1        13.3526  -17.4770   -8.5661 O.co2   2  ASP22      -0.5497
     12 OD2        13.5163  -15.1905   -8.5692 O.co2   2  ASP22      -0.5497
     13 N          12.1692  -10.8380   -9.9843 N.am    1  UNK11      -0.2984
     14 N          14.3879   -9.0358   -9.3718 N.pl3   1  UNK11      -0.3269
     15 N           8.8903  -12.7864   -7.9510 N.am    1  UNK11      -0.3020
     16 N           5.9352  -15.5204   -3.5557 N.am    5  TRP55      -0.3022
     17 N           8.4141  -16.3605   -3.0675 N.am    4  LEU44      -0.3022
     18 N           5.8470  -12.9202   -6.0438 N.am    6  ASP66      -0.3021
     19 N          10.3877  -15.1381   -7.3556 N.am    2  ASP22      -0.3021
     20 N           9.6418  -17.7887   -5.3706 N.am    3  UNK33      -0.2984
     21 NE1         2.1168  -17.6795   -3.0483 N.ar    5  TRP55      -0.3604
     22 C          12.1331   -9.4320  -10.3897 C.3     1  UNK11       0.0304
     23 C          13.4972  -11.3839   -9.6568 C.3     1  UNK11       0.0304
     24 C          13.5248   -8.8019  -10.5470 C.3     1  UNK11       0.0280
     25 C          14.3121  -10.4073   -8.7872 C.3     1  UNK11       0.0280
     26 C          10.9642  -11.5243   -9.9109 C.2     1  UNK11       0.2179
     27 C          10.9992  -12.8884   -9.2584 C.3     1  UNK11       0.0510
     28 C           9.6135  -13.4936   -9.0130 C.3     1  UNK11       0.1076
     29 CA          7.8390  -15.5212   -1.9994 C.3     4  LEU44       0.0997
     30 CB          8.8457  -14.3904   -1.7091 C.3     4  LEU44      -0.0236
     31 CA          5.1324  -14.6752   -4.4462 C.3     5  TRP55       0.1034
     32 C          14.5577   -8.0319   -8.4095 C.ar    1  UNK11       0.0298
     33 CG          8.5486  -13.4479   -0.5270 C.3     4  LEU44      -0.0446
     34 CB          4.1030  -15.4810   -5.2455 C.3     5  TRP55       0.0013
     35 C           6.4516  -14.9670   -2.4020 C.2     4  LEU44       0.2340
     36 CA          6.9228  -12.1202   -6.6359 C.3     6  ASP66       0.1045
     37 C           9.8316  -14.9705   -8.6094 C.2     1  UNK11       0.2344
     38 CG          3.0886  -16.1707   -4.3728 C.ar    5  TRP55      -0.0201
     39 C           6.1932  -14.0800   -5.3949 C.2     5  TRP55       0.2343
     40 C           7.5082  -12.8459   -7.8713 C.2     6  ASP66       0.2343
     41 CA         10.9850  -16.3899   -6.9110 C.3     2  ASP22       0.1045
     42 CD2         8.2830  -14.1953    0.7776 C.3     4  LEU44      -0.0626
     43 CD1         9.7216  -12.4782   -0.3412 C.3     4  LEU44      -0.0626
     44 C           9.4442  -18.4063   -4.0578 C.3     3  UNK33       0.1311
     45 C          15.6676   -8.0819   -7.5474 C.ar    1  UNK11      -0.0407
     46 C          13.6683   -6.9620   -8.2383 C.ar    1  UNK11      -0.0407
     47 CD2         1.8278  -15.6540   -3.9285 C.ar    5  TRP55       0.0029
     48 C           8.4547  -17.7351   -3.0370 C.2     3  UNK33       0.2390
     49 CB          6.4479  -10.7374   -7.0599 C.3     6  ASP66       0.0138
     50 CD1         3.2175  -17.4310   -3.8192 C.ar    5  TRP55       0.0060
     51 CE2         1.2432  -16.6198   -3.1067 C.ar    5  TRP55       0.0467
     52 C          10.4168  -16.6583   -5.5055 C.2     2  ASP22       0.2345
     53 CB         12.4950  -16.2686   -6.7516 C.3     2  ASP22       0.0138
     54 C          15.8771   -7.1175   -6.5559 C.ar    1  UNK11      -0.0600
     55 C          13.8677   -5.9962   -7.2434 C.ar    1  UNK11      -0.0600
     56 C           9.0092  -19.8394   -4.2861 C.ar    3  UNK33       0.0189
     57 CE3         1.1340  -14.4443   -4.1353 C.ar    5  TRP55      -0.0523
     58 C          14.9725   -6.0738   -6.4019 C.ar    1  UNK11      -0.0616
     59 CZ2         0.0011  -16.4394   -2.4849 C.ar    5  TRP55      -0.0378
     60 CG          6.0709  -10.0076   -5.7831 C.2     6  ASP66       0.0440
     61 CZ3        -0.1109  -14.2484   -3.5241 C.ar    5  TRP55      -0.0611
     62 C           8.0312  -20.3347   -5.1320 C.ar    3  UNK33      -0.0493
     63 CH2        -0.6674  -15.2331   -2.7113 C.ar    5  TRP55      -0.0598
     64 CG         13.1655  -16.3150   -8.1081 C.2     2  ASP22       0.0440
     65 C           7.9195  -21.7538   -5.0651 C.ar    3  UNK33      -0.0544
     66 C           8.8024  -22.2985   -4.1613 C.ar    3  UNK33      -0.0240
@<TRIPOS>BOND
     1     1    56   ar
     2     1    66   ar
     3     2    26    2
     4     3    35    2
     5     4    37    2
     6     5    39    2
     7     6    40    2
     8     7    48    2
     9     8    52    2
    10     9    60   ar
    11    10    60   ar
    12    11    64   ar
    13    12    64   ar
    14    13    22    1
    15    13    23    1
    16    14    24    1
    17    14    25    1
    18    14    32    1
    19    15    28    1
    20    15    40   am
    21    16    35   am
    22    16    31    1
    23    17    48   am
    24    17    29    1
    25    18    39   am
    26    18    36    1
    27    19    37   am
    28    19    41    1
    29    20    52   am
    30    20    44    1
    31    21    50   ar
    32    21    51   ar
    33    22    24    1
    34    23    25    1
    35    26    27    1
    36    26    13   am
    37    28    37    1
    38    28    27    1
    39    29    35    1
    40    29    30    1
    41    30    33    1
    42    31    39    1
    43    31    34    1
    44    32    45   ar
    45    32    46   ar
    46    33    43    1
    47    33    42    1
    48    34    38    1
    49    36    40    1
    50    36    49    1
    51    38    47   ar
    52    38    50   ar
    53    41    52    1
    54    41    53    1
    55    44    48    1
    56    44    56    1
    57    45    54   ar
    58    46    55   ar
    59    47    57   ar
    60    47    51   ar
    61    49    60    1
    62    51    59   ar
    63    53    64    1
    64    54    58   ar
    65    55    58   ar
    66    56    62   ar
    67    57    61   ar
    68    59    63   ar
    69    61    63   ar
    70    62    65   ar
    71    65    66   ar
@<TRIPOS>MOLECULE
../1EDN/XRAY_17-21.pdb
 47 48 0 0 0
SMALL
GASTEIGER

@<TRIPOS>ATOM
      1  N          6.4500  -19.7300   -2.8460 N.3    17  LEU17      -0.1231
      2  CA         5.2640  -20.1680   -2.1160 C.3    17  LEU17       0.1693
      3  C          4.7010  -18.8060   -1.6720 C.2    17  LEU17       0.2592
      4  O          4.3760  -17.9800   -2.5270 O.2    17  LEU17      -0.2718
      5  CB         5.6570  -21.0170   -0.8850 C.3    17  LEU17       0.0284
      6  CG         5.4050  -22.5400   -0.8470 C.3    17  LEU17       0.0019
      7  CD1        6.1110  -23.2140    0.3150 C.3    17  LEU17       0.0001
      8  CD2        3.9240  -22.7940   -0.7690 C.3    17  LEU17       0.0001
      9  N          4.7270  -18.4910   -0.3800 N.am   18  ASP18      -0.1962
     10  CA         4.1720  -17.2010    0.0630 C.3    18  ASP18       0.1783
     11  C          4.7750  -15.8130   -0.3500 C.2    18  ASP18       0.2620
     12  O          4.1570  -14.7710   -0.0750 O.2    18  ASP18      -0.2715
     13  CB         3.8720  -17.2370    1.5730 C.3    18  ASP18       0.0728
     14  CG         2.4440  -17.7210    1.8880 C.2    18  ASP18       0.0526
     15  OD1        1.8320  -18.4410    1.0660 O.co2  18  ASP18      -0.5491
     16  OD2        1.9260  -17.3730    2.9700 O.co2  18  ASP18      -0.5491
     17  N          5.9570  -15.7420   -0.9630 N.am   19  ILE19      -0.1963
     18  CA         6.4450  -14.4030   -1.3510 C.3    19  ILE19       0.1727
     19  C          5.5760  -13.9960   -2.5290 C.2    19  ILE19       0.2616
     20  O          4.8370  -13.0080   -2.4770 O.2    19  ILE19      -0.2715
     21  CB         7.9140  -14.3690   -1.8400 C.3    19  ILE19       0.0290
     22  CG1        8.8760  -14.8240   -0.7490 C.3    19  ILE19       0.0022
     23  CG2        8.2810  -12.9320   -2.2380 C.3    19  ILE19       0.0023
     24  CD1        9.3280  -13.7050    0.1860 C.3    19  ILE19       0.0001
     25  N          5.7170  -14.7750   -3.5990 N.am   20  ILE20      -0.1963
     26  CA         4.9770  -14.6140   -4.8450 C.3    20  ILE20       0.1727
     27  C          4.7560  -16.0550   -5.2510 C.2    20  ILE20       0.2615
     28  O          5.5820  -16.9240   -4.9410 O.2    20  ILE20      -0.2715
     29  CB         5.8140  -13.8870   -5.9550 C.3    20  ILE20       0.0290
     30  CG1        5.9530  -12.3980   -5.6400 C.3    20  ILE20       0.0022
     31  CG2        5.1640  -14.0490   -7.3150 C.3    20  ILE20       0.0023
     32  CD1        6.8340  -11.6390   -6.6010 C.3    20  ILE20       0.0001
     33  N          3.6520  -16.3070   -5.9350 N.am   21  TRP21      -0.1988
     34  CA         3.3300  -17.6370   -6.4010 C.3    21  TRP21       0.1456
     35  C          2.5650  -17.6270   -7.7180 C.2    21  TRP21       0.1166
     36  O          1.8980  -18.6320   -8.0750 O.co2  21  TRP21      -0.3065
     37  CB         2.6690  -18.5180   -5.3120 C.3    21  TRP21       0.0562
     38  CG         1.5690  -17.9980   -4.3600 C.ar   21  TRP21       0.0005
     39  CD1        0.7990  -18.7930   -3.5490 C.ar   21  TRP21       0.0946
     40  CD2        1.2480  -16.6350   -3.9890 C.ar   21  TRP21       0.0152
     41  CE2        0.3020  -16.7070   -2.9250 C.ar   21  TRP21       0.0810
     42  CE3        1.6680  -15.3700   -4.4360 C.ar   21  TRP21       0.0012
     43  NE1        0.0520  -18.0350   -2.6840 N.ar   21  TRP21      -0.2442
     44  CZ2       -0.2230  -15.5590   -2.2950 C.ar   21  TRP21       0.0191
     45  CZ3        1.1420  -14.2140   -3.8060 C.ar   21  TRP21       0.0001
     46  CH2        0.2070  -14.3240   -2.7450 C.ar   21  TRP21       0.0015
     47  OXT        2.7400  -16.6140   -8.4280 O.co2  21  TRP21      -0.8460
@<TRIPOS>BOND
     1    47    35   ar
     2    36    35   ar
     3    35    34    1
     4    31    29    1
     5    32    30    1
     6    34    33    1
     7    34    37    1
     8    29    30    1
     9    29    26    1
    10    33    27   am
    11    37    38    1
    12    27    28    2
    13    27    26    1
    14    26    25    1
    15    42    40   ar
    16    42    45   ar
    17    38    40   ar
    18    38    39   ar
    19    40    41   ar
    20    45    46   ar
    21    25    19   am
    22    39    43   ar
    23    41    43   ar
    24    41    44   ar
    25     1     2    1
    26    46    44   ar
    27    19    20    2
    28    19    18    1
    29     4     3    2
    30    23    21    1
    31     2     3    1
    32     2     5    1
    33    21    18    1
    34    21    22    1
    35     3     9   am
    36    18    17    1
    37    17    11   am
    38     5     6    1
    39     6     8    1
    40     6     7    1
    41    22    24    1
    42     9    10    1
    43    11    12    2
    44    11    10    1
    45    10    13    1
    46    15    14   ar
    47    13    14    1
    48    14    16   ar
