@<TRIPOS>MOLECULE
../1EDN/XRAY_17-21_NOBACKBONE.pdb
 26 23 0 0 0
SMALL
GASTEIGER

@<TRIPOS>ATOM
      1  CB         5.6570  -21.0170   -0.8850 C.3    17  LEU17       0.0000
      2  CG         5.4050  -22.5400   -0.8470 C.3    17  LEU17       0.0000
      3  CD1        6.1110  -23.2140    0.3150 C.3    17  LEU17       0.0000
      4  CD2        3.9240  -22.7940   -0.7690 C.3    17  LEU17       0.0000
      5  CB         3.8720  -17.2370    1.5730 C.3    18  ASP18       0.0476
      6  CG         2.4440  -17.7210    1.8880 C.2    18  ASP18       0.0507
      7  OD1        1.8320  -18.4410    1.0660 O.co2  18  ASP18      -0.5492
      8  OD2        1.9260  -17.3730    2.9700 O.co2  18  ASP18      -0.5492
      9  CB         7.9140  -14.3690   -1.8400 C.3    19  ILE19       0.0000
     10  CG1        8.8760  -14.8240   -0.7490 C.3    19  ILE19       0.0000
     11  CG2        8.2810  -12.9320   -2.2380 C.3    19  ILE19       0.0000
     12  CD1        9.3280  -13.7050    0.1860 C.3    19  ILE19       0.0000
     13  CB         5.8140  -13.8870   -5.9550 C.3    20  ILE20       0.0000
     14  CG1        5.9530  -12.3980   -5.6400 C.3    20  ILE20       0.0000
     15  CG2        5.1640  -14.0490   -7.3150 C.3    20  ILE20       0.0000
     16  CD1        6.8340  -11.6390   -6.6010 C.3    20  ILE20       0.0000
     17  CB         2.6690  -18.5180   -5.3120 C.3    21  TRP21       0.0327
     18  CG         1.5690  -17.9980   -4.3600 C.ar   21  TRP21      -0.0013
     19  CD1        0.7990  -18.7930   -3.5490 C.ar   21  TRP21       0.0946
     20  CD2        1.2480  -16.6350   -3.9890 C.ar   21  TRP21       0.0152
     21  CE2        0.3020  -16.7070   -2.9250 C.ar   21  TRP21       0.0810
     22  CE3        1.6680  -15.3700   -4.4360 C.ar   21  TRP21       0.0012
     23  NE1        0.0520  -18.0350   -2.6840 N.ar   21  TRP21      -0.2442
     24  CZ2       -0.2230  -15.5590   -2.2950 C.ar   21  TRP21       0.0191
     25  CZ3        1.1420  -14.2140   -3.8060 C.ar   21  TRP21       0.0001
     26  CH2        0.2070  -14.3240   -2.7450 C.ar   21  TRP21       0.0015
@<TRIPOS>BOND
     1    15    13    1
     2    16    14    1
     3    13    14    1
     4    17    18    1
     5    22    20   ar
     6    22    25   ar
     7    18    20   ar
     8    18    19   ar
     9    20    21   ar
    10    25    26   ar
    11    19    23   ar
    12    21    23   ar
    13    21    24   ar
    14    26    24   ar
    15    11     9    1
    16     9    10    1
    17     1     2    1
    18     2     4    1
    19     2     3    1
    20    10    12    1
    21     7     6   ar
    22     5     6    1
    23     6     8   ar
@<TRIPOS>MOLECULE
2-[[2-[2-butyl-4-[(Z)-2-carboxy-3-(6-methoxy-1,3-benzodioxol-5-yl)prop-1-enyl]pyrazol-3-yl]-5-methoxyphenoxy]methyl]benzoic acid
 45 49 0 0 0
SMALL
GASTEIGER

@<TRIPOS>ATOM
      1 O           3.3554  -12.8175   -2.4798 O.3     1  LIG11      -0.4866
      2 O           7.2730  -11.4728  -11.1556 O.3     1  LIG11      -0.4526
      3 O           7.9472   -9.1667  -10.9233 O.3     1  LIG11      -0.4525
      4 O           7.9279   -9.4594   -6.1082 O.3     1  LIG11      -0.4947
      5 O           2.6684  -14.1116    2.0120 O.3     1  LIG11      -0.4950
      6 O           4.0123  -11.8200   -7.3450 O.co2   1  LIG11      -0.5449
      7 O           4.4846  -10.2877   -5.7094 O.co2   1  LIG11      -0.5449
      8 O          -0.5744  -12.7188   -1.0772 O.co2   1  LIG11      -0.5446
      9 O          -0.9630  -14.7549   -0.1842 O.co2   1  LIG11      -0.5446
     10 N           6.9976  -15.2586   -2.5961 N.ar    1  LIG11      -0.2630
     11 N           7.5018  -15.7711   -3.7362 N.ar    1  LIG11      -0.1785
     12 C           5.7419  -14.6601   -2.7624 C.ar    1  LIG11       0.0795
     13 C           7.8523  -15.2636   -1.4175 C.3     1  LIG11       0.0422
     14 C           9.2039  -14.5719   -1.6356 C.3     1  LIG11      -0.0336
     15 C           5.8831  -14.1912   -4.0798 C.ar    1  LIG11       0.0207
     16 C           4.7774  -14.5530   -1.6175 C.ar    1  LIG11       0.0425
     17 C           9.0585  -13.0614   -1.8395 C.3     1  LIG11      -0.0542
     18 C           6.8598  -15.0470   -4.6500 C.ar    1  LIG11       0.0571
     19 C           5.1773  -13.1816   -4.8070 C.2     1  LIG11      -0.0459
     20 C           7.0767  -12.2118   -6.2463 C.3     1  LIG11       0.0029
     21 C           3.7477  -13.6150   -1.4411 C.ar    1  LIG11       0.1336
     22 C           5.6635  -12.3407   -5.7515 C.2     1  LIG11      -0.0200
     23 C           7.3253  -11.3441   -7.4689 C.ar    1  LIG11       0.0023
     24 C           4.8762  -15.5295   -0.5938 C.ar    1  LIG11      -0.0456
     25 C          10.4024  -12.4047   -2.1088 C.3     1  LIG11      -0.0652
     26 C           3.0953  -13.4907   -0.1952 C.ar    1  LIG11       0.0224
     27 C           7.7116   -9.9884   -7.3553 C.ar    1  LIG11       0.1273
     28 C           7.1432  -11.8938   -8.7539 C.ar    1  LIG11      -0.0092
     29 C           4.1839  -15.4452    0.6223 C.ar    1  LIG11      -0.0191
     30 C           7.3758  -11.0920   -9.8522 C.ar    1  LIG11       0.1667
     31 C           3.3269  -14.3833    0.8468 C.ar    1  LIG11       0.1236
     32 C           7.7642   -9.7794   -9.7210 C.ar    1  LIG11       0.1697
     33 C           7.9460   -9.1973   -8.4875 C.ar    1  LIG11       0.0258
     34 C           4.6163  -11.3840   -6.3223 C.2     1  LIG11       0.0680
     35 C           1.9182  -12.7473   -2.6953 C.3     1  LIG11       0.1153
     36 C           7.5656  -10.2297  -11.8193 C.3     1  LIG11       0.2332
     37 C           1.2588  -14.0867   -3.0136 C.ar    1  LIG11      -0.0016
     38 C           0.1992  -14.6538   -2.2635 C.ar    1  LIG11       0.0037
     39 C           1.7443  -14.8009   -4.1321 C.ar    1  LIG11      -0.0547
     40 C           6.9946   -8.4122   -5.8266 C.3     1  LIG11       0.0788
     41 C          -0.2895  -15.9261   -2.6471 C.ar    1  LIG11      -0.0525
     42 C           1.2430  -16.0520   -4.4893 C.ar    1  LIG11      -0.0614
     43 C           2.6297  -15.1461    2.9823 C.3     1  LIG11       0.0788
     44 C           0.2255  -16.6202   -3.7413 C.ar    1  LIG11      -0.0611
     45 C          -0.4784  -13.9837   -1.0791 C.2     1  LIG11       0.0720
@<TRIPOS>BOND
     1     1    35    1
     2     1    21    1
     3     2    36    1
     4     2    30    1
     5     3    32    1
     6     3    36    1
     7     4    27    1
     8     4    40    1
     9     5    31    1
    10     5    43    1
    11     6    34   ar
    12     7    34   ar
    13     8    45   ar
    14     9    45   ar
    15    10    11   ar
    16    10    12   ar
    17    10    13    1
    18    11    18   ar
    19    12    15   ar
    20    13    14    1
    21    14    17    1
    22    15    18   ar
    23    15    19    1
    24    16    24   ar
    25    16    21   ar
    26    16    12    1
    27    17    25    1
    28    19    22    2
    29    20    22    1
    30    20    23    1
    31    21    26   ar
    32    22    34    1
    33    23    28   ar
    34    23    27   ar
    35    24    29   ar
    36    26    31   ar
    37    27    33   ar
    38    28    30   ar
    39    29    31   ar
    40    30    32   ar
    41    32    33   ar
    42    35    37    1
    43    37    39   ar
    44    37    38   ar
    45    38    41   ar
    46    38    45    1
    47    39    42   ar
    48    41    44   ar
    49    42    44   ar
@<TRIPOS>MOLECULE
../1EDN/XRAY_17-21.pdb
 47 48 0 0 0
SMALL
GASTEIGER

@<TRIPOS>ATOM
      1  N          6.4500  -19.7300   -2.8460 N.3    17  LEU17      -0.1231
      2  CA         5.2640  -20.1680   -2.1160 C.3    17  LEU17       0.1693
      3  C          4.7010  -18.8060   -1.6720 C.2    17  LEU17       0.2592
      4  O          4.3760  -17.9800   -2.5270 O.2    17  LEU17      -0.2718
      5  CB         5.6570  -21.0170   -0.8850 C.3    17  LEU17       0.0284
      6  CG         5.4050  -22.5400   -0.8470 C.3    17  LEU17       0.0019
      7  CD1        6.1110  -23.2140    0.3150 C.3    17  LEU17       0.0001
      8  CD2        3.9240  -22.7940   -0.7690 C.3    17  LEU17       0.0001
      9  N          4.7270  -18.4910   -0.3800 N.am   18  ASP18      -0.1962
     10  CA         4.1720  -17.2010    0.0630 C.3    18  ASP18       0.1783
     11  C          4.7750  -15.8130   -0.3500 C.2    18  ASP18       0.2620
     12  O          4.1570  -14.7710   -0.0750 O.2    18  ASP18      -0.2715
     13  CB         3.8720  -17.2370    1.5730 C.3    18  ASP18       0.0728
     14  CG         2.4440  -17.7210    1.8880 C.2    18  ASP18       0.0526
     15  OD1        1.8320  -18.4410    1.0660 O.co2  18  ASP18      -0.5491
     16  OD2        1.9260  -17.3730    2.9700 O.co2  18  ASP18      -0.5491
     17  N          5.9570  -15.7420   -0.9630 N.am   19  ILE19      -0.1963
     18  CA         6.4450  -14.4030   -1.3510 C.3    19  ILE19       0.1727
     19  C          5.5760  -13.9960   -2.5290 C.2    19  ILE19       0.2616
     20  O          4.8370  -13.0080   -2.4770 O.2    19  ILE19      -0.2715
     21  CB         7.9140  -14.3690   -1.8400 C.3    19  ILE19       0.0290
     22  CG1        8.8760  -14.8240   -0.7490 C.3    19  ILE19       0.0022
     23  CG2        8.2810  -12.9320   -2.2380 C.3    19  ILE19       0.0023
     24  CD1        9.3280  -13.7050    0.1860 C.3    19  ILE19       0.0001
     25  N          5.7170  -14.7750   -3.5990 N.am   20  ILE20      -0.1963
     26  CA         4.9770  -14.6140   -4.8450 C.3    20  ILE20       0.1727
     27  C          4.7560  -16.0550   -5.2510 C.2    20  ILE20       0.2615
     28  O          5.5820  -16.9240   -4.9410 O.2    20  ILE20      -0.2715
     29  CB         5.8140  -13.8870   -5.9550 C.3    20  ILE20       0.0290
     30  CG1        5.9530  -12.3980   -5.6400 C.3    20  ILE20       0.0022
     31  CG2        5.1640  -14.0490   -7.3150 C.3    20  ILE20       0.0023
     32  CD1        6.8340  -11.6390   -6.6010 C.3    20  ILE20       0.0001
     33  N          3.6520  -16.3070   -5.9350 N.am   21  TRP21      -0.1988
     34  CA         3.3300  -17.6370   -6.4010 C.3    21  TRP21       0.1456
     35  C          2.5650  -17.6270   -7.7180 C.2    21  TRP21       0.1166
     36  O          1.8980  -18.6320   -8.0750 O.co2  21  TRP21      -0.3065
     37  CB         2.6690  -18.5180   -5.3120 C.3    21  TRP21       0.0562
     38  CG         1.5690  -17.9980   -4.3600 C.ar   21  TRP21       0.0005
     39  CD1        0.7990  -18.7930   -3.5490 C.ar   21  TRP21       0.0946
     40  CD2        1.2480  -16.6350   -3.9890 C.ar   21  TRP21       0.0152
     41  CE2        0.3020  -16.7070   -2.9250 C.ar   21  TRP21       0.0810
     42  CE3        1.6680  -15.3700   -4.4360 C.ar   21  TRP21       0.0012
     43  NE1        0.0520  -18.0350   -2.6840 N.ar   21  TRP21      -0.2442
     44  CZ2       -0.2230  -15.5590   -2.2950 C.ar   21  TRP21       0.0191
     45  CZ3        1.1420  -14.2140   -3.8060 C.ar   21  TRP21       0.0001
     46  CH2        0.2070  -14.3240   -2.7450 C.ar   21  TRP21       0.0015
     47  OXT        2.7400  -16.6140   -8.4280 O.co2  21  TRP21      -0.8460
@<TRIPOS>BOND
     1    47    35   ar
     2    36    35   ar
     3    35    34    1
     4    31    29    1
     5    32    30    1
     6    34    33    1
     7    34    37    1
     8    29    30    1
     9    29    26    1
    10    33    27   am
    11    37    38    1
    12    27    28    2
    13    27    26    1
    14    26    25    1
    15    42    40   ar
    16    42    45   ar
    17    38    40   ar
    18    38    39   ar
    19    40    41   ar
    20    45    46   ar
    21    25    19   am
    22    39    43   ar
    23    41    43   ar
    24    41    44   ar
    25     1     2    1
    26    46    44   ar
    27    19    20    2
    28    19    18    1
    29     4     3    2
    30    23    21    1
    31     2     3    1
    32     2     5    1
    33    21    18    1
    34    21    22    1
    35     3     9   am
    36    18    17    1
    37    17    11   am
    38     5     6    1
    39     6     8    1
    40     6     7    1
    41    22    24    1
    42     9    10    1
    43    11    12    2
    44    11    10    1
    45    10    13    1
    46    15    14   ar
    47    13    14    1
    48    14    16   ar
