@<TRIPOS>MOLECULE
../1EDN/XRAY_17-21_NOBACKBONE.pdb
 26 23 0 0 0
SMALL
GASTEIGER

@<TRIPOS>ATOM
      1  CB         5.6570  -21.0170   -0.8850 C.3    17  LEU17       0.0000
      2  CG         5.4050  -22.5400   -0.8470 C.3    17  LEU17       0.0000
      3  CD1        6.1110  -23.2140    0.3150 C.3    17  LEU17       0.0000
      4  CD2        3.9240  -22.7940   -0.7690 C.3    17  LEU17       0.0000
      5  CB         3.8720  -17.2370    1.5730 C.3    18  ASP18       0.0476
      6  CG         2.4440  -17.7210    1.8880 C.2    18  ASP18       0.0507
      7  OD1        1.8320  -18.4410    1.0660 O.co2  18  ASP18      -0.5492
      8  OD2        1.9260  -17.3730    2.9700 O.co2  18  ASP18      -0.5492
      9  CB         7.9140  -14.3690   -1.8400 C.3    19  ILE19       0.0000
     10  CG1        8.8760  -14.8240   -0.7490 C.3    19  ILE19       0.0000
     11  CG2        8.2810  -12.9320   -2.2380 C.3    19  ILE19       0.0000
     12  CD1        9.3280  -13.7050    0.1860 C.3    19  ILE19       0.0000
     13  CB         5.8140  -13.8870   -5.9550 C.3    20  ILE20       0.0000
     14  CG1        5.9530  -12.3980   -5.6400 C.3    20  ILE20       0.0000
     15  CG2        5.1640  -14.0490   -7.3150 C.3    20  ILE20       0.0000
     16  CD1        6.8340  -11.6390   -6.6010 C.3    20  ILE20       0.0000
     17  CB         2.6690  -18.5180   -5.3120 C.3    21  TRP21       0.0327
     18  CG         1.5690  -17.9980   -4.3600 C.ar   21  TRP21      -0.0013
     19  CD1        0.7990  -18.7930   -3.5490 C.ar   21  TRP21       0.0946
     20  CD2        1.2480  -16.6350   -3.9890 C.ar   21  TRP21       0.0152
     21  CE2        0.3020  -16.7070   -2.9250 C.ar   21  TRP21       0.0810
     22  CE3        1.6680  -15.3700   -4.4360 C.ar   21  TRP21       0.0012
     23  NE1        0.0520  -18.0350   -2.6840 N.ar   21  TRP21      -0.2442
     24  CZ2       -0.2230  -15.5590   -2.2950 C.ar   21  TRP21       0.0191
     25  CZ3        1.1420  -14.2140   -3.8060 C.ar   21  TRP21       0.0001
     26  CH2        0.2070  -14.3240   -2.7450 C.ar   21  TRP21       0.0015
@<TRIPOS>BOND
     1    15    13    1
     2    16    14    1
     3    13    14    1
     4    17    18    1
     5    22    20   ar
     6    22    25   ar
     7    18    20   ar
     8    18    19   ar
     9    20    21   ar
    10    25    26   ar
    11    19    23   ar
    12    21    23   ar
    13    21    24   ar
    14    26    24   ar
    15    11     9    1
    16     9    10    1
    17     1     2    1
    18     2     4    1
    19     2     3    1
    20    10    12    1
    21     7     6   ar
    22     5     6    1
    23     6     8   ar
@<TRIPOS>MOLECULE
HTS1204-03362316-01
 44 47 0 0 0
SMALL
USER_CHARGES

@<TRIPOS>ATOM
      1 C1          1.8398  -14.4118   -4.2266 C.ar    1  UNK11      -0.0199
      2 N1         -0.2218  -14.5957   -3.3943 N.ar    1  UNK11      -0.3494
      3 C2          5.5819  -18.2507   -2.0849 C.2     1  UNK11       0.3028
      4 C3          0.6987  -13.7102   -3.8841 C.ar    1  UNK11       0.0086
      5 C4          5.1063  -12.2364   -4.2606 C.2     1  UNK11       0.2342
      6 C5          1.5783  -15.7901   -3.9382 C.ar    1  UNK11       0.0031
      7 C6          5.2243  -15.1374   -2.8815 C.2     1  UNK11       0.2340
      8 C7          0.2928  -15.8739   -3.3946 C.ar    1  UNK11       0.0491
      9 N2          5.1275  -17.1286   -1.4342 N.am    1  UNK11      -0.2879
     10 N3          4.7870  -19.3776   -1.8781 N.am    1  UNK11      -0.2856
     11 N4          4.5067  -13.9770   -2.6519 N.am    1  UNK11      -0.3022
     12 N5          5.6010  -12.5149   -5.5030 N.am    1  UNK11      -0.3054
     13 C8          3.9753  -13.1394   -3.7343 C.3     1  UNK11       0.1034
     14 C9          5.7491  -15.8029   -1.5892 C.3     1  UNK11       0.1011
     15 C10         6.7444  -11.8044   -6.1144 C.3     1  UNK11       0.0680
     16 C11         3.1051  -13.8269   -4.7991 C.3     1  UNK11       0.0013
     17 C12         7.5920  -12.7293   -7.0381 C.2     1  UNK11       0.0623
     18 C13         6.3007  -10.7010   -7.0898 C.3     1  UNK11       0.0133
     19 O1          6.5982  -18.2898   -2.7665 O.2     1  UNK11      -0.2526
     20 O2          5.3517  -15.6308   -3.9946 O.2     1  UNK11      -0.2738
     21 O3          5.5808  -11.3681   -3.5203 O.2     1  UNK11      -0.2738
     22 N6          4.5154   -9.0285   -7.1453 N.ar    1  UNK11      -0.2598
     23 O4          6.9806  -13.7643   -7.4424 O.co2   1  UNK11      -0.5479
     24 C14         7.2821  -15.7941   -1.4623 C.3     1  UNK11      -0.0236
     25 C15         5.6075   -9.5007   -6.4849 C.ar    1  UNK11       0.0434
     26 O5          8.7739  -12.3438   -7.2632 O.co2   1  UNK11      -0.5479
     27 C16        -1.5525  -14.2395   -2.9582 C.3     1  UNK11       0.0119
     28 C17         3.9259  -19.5320   -0.7009 C.3     1  UNK11       0.0161
     29 C18         5.0416  -20.5388   -2.7227 C.3     1  UNK11       0.0161
     30 C19        -0.2646  -17.0949   -2.9785 C.ar    1  UNK11      -0.0376
     31 C20         2.3205  -16.9793   -4.0925 C.ar    1  UNK11      -0.0523
     32 C21         7.8848  -14.3954   -1.2011 C.3     1  UNK11      -0.0446
     33 C22         3.9193   -7.9195   -6.6599 C.ar    1  UNK11       0.0279
     34 C23         6.1198   -8.8531   -5.3634 C.ar    1  UNK11      -0.0403
     35 C24         8.2104  -13.6623   -2.5041 C.3     1  UNK11      -0.0626
     36 C25         9.1689  -14.5208   -0.3750 C.3     1  UNK11      -0.0626
     37 C26         3.5608  -20.9720   -0.3301 C.3     1  UNK11      -0.0371
     38 C27         6.0536  -21.5162   -2.1277 C.3     1  UNK11      -0.0371
     39 C28         1.7738  -18.2003   -3.6876 C.ar    1  UNK11      -0.0611
     40 C29         0.5008  -18.2548   -3.1318 C.ar    1  UNK11      -0.0598
     41 C30         4.3553   -7.2351   -5.5399 C.ar    1  UNK11      -0.0436
     42 C31         5.4774   -7.7156   -4.8803 C.ar    1  UNK11      -0.0586
     43 C32         4.7389  -21.8653    0.0729 C.3     1  UNK11      -0.0516
     44 C33         6.0808  -21.5901   -0.6024 C.3     1  UNK11      -0.0516
@<TRIPOS>BOND
     1     2     4   ar
     2     3     9   am
     3     1     4   ar
     4     5    13    1
     5     1     6   ar
     6     7    11   am
     7     6     8   ar
     8     9    14    1
     9     3    10   am
    10    11    13    1
    11     5    12   am
    12    13    16    1
    13     7    14    1
    14    12    15    1
    15     1    16    1
    16    15    17    1
    17    15    18    1
    18     3    19    2
    19     7    20    2
    20     5    21    2
    21    22    25   ar
    22    17    23   ar
    23    14    24    1
    24    18    25    1
    25    17    26   ar
    26     2    27    1
    27    10    28    1
    28    10    29    1
    29     8    30   ar
    30     6    31   ar
    31    24    32    1
    32    22    33   ar
    33    25    34   ar
    34    32    35    1
    35    32    36    1
    36    28    37    1
    37    29    38    1
    38    31    39   ar
    39    39    40   ar
    40    41    42   ar
    41    34    42   ar
    42    37    43    1
    43    38    44    1
    44     2     8   ar
    45    30    40   ar
    46    33    41   ar
    47    43    44    1
@<TRIPOS>MOLECULE
../1EDN/XRAY_17-21.pdb
 47 48 0 0 0
SMALL
GASTEIGER

@<TRIPOS>ATOM
      1  N          6.4500  -19.7300   -2.8460 N.3    17  LEU17      -0.1231
      2  CA         5.2640  -20.1680   -2.1160 C.3    17  LEU17       0.1693
      3  C          4.7010  -18.8060   -1.6720 C.2    17  LEU17       0.2592
      4  O          4.3760  -17.9800   -2.5270 O.2    17  LEU17      -0.2718
      5  CB         5.6570  -21.0170   -0.8850 C.3    17  LEU17       0.0284
      6  CG         5.4050  -22.5400   -0.8470 C.3    17  LEU17       0.0019
      7  CD1        6.1110  -23.2140    0.3150 C.3    17  LEU17       0.0001
      8  CD2        3.9240  -22.7940   -0.7690 C.3    17  LEU17       0.0001
      9  N          4.7270  -18.4910   -0.3800 N.am   18  ASP18      -0.1962
     10  CA         4.1720  -17.2010    0.0630 C.3    18  ASP18       0.1783
     11  C          4.7750  -15.8130   -0.3500 C.2    18  ASP18       0.2620
     12  O          4.1570  -14.7710   -0.0750 O.2    18  ASP18      -0.2715
     13  CB         3.8720  -17.2370    1.5730 C.3    18  ASP18       0.0728
     14  CG         2.4440  -17.7210    1.8880 C.2    18  ASP18       0.0526
     15  OD1        1.8320  -18.4410    1.0660 O.co2  18  ASP18      -0.5491
     16  OD2        1.9260  -17.3730    2.9700 O.co2  18  ASP18      -0.5491
     17  N          5.9570  -15.7420   -0.9630 N.am   19  ILE19      -0.1963
     18  CA         6.4450  -14.4030   -1.3510 C.3    19  ILE19       0.1727
     19  C          5.5760  -13.9960   -2.5290 C.2    19  ILE19       0.2616
     20  O          4.8370  -13.0080   -2.4770 O.2    19  ILE19      -0.2715
     21  CB         7.9140  -14.3690   -1.8400 C.3    19  ILE19       0.0290
     22  CG1        8.8760  -14.8240   -0.7490 C.3    19  ILE19       0.0022
     23  CG2        8.2810  -12.9320   -2.2380 C.3    19  ILE19       0.0023
     24  CD1        9.3280  -13.7050    0.1860 C.3    19  ILE19       0.0001
     25  N          5.7170  -14.7750   -3.5990 N.am   20  ILE20      -0.1963
     26  CA         4.9770  -14.6140   -4.8450 C.3    20  ILE20       0.1727
     27  C          4.7560  -16.0550   -5.2510 C.2    20  ILE20       0.2615
     28  O          5.5820  -16.9240   -4.9410 O.2    20  ILE20      -0.2715
     29  CB         5.8140  -13.8870   -5.9550 C.3    20  ILE20       0.0290
     30  CG1        5.9530  -12.3980   -5.6400 C.3    20  ILE20       0.0022
     31  CG2        5.1640  -14.0490   -7.3150 C.3    20  ILE20       0.0023
     32  CD1        6.8340  -11.6390   -6.6010 C.3    20  ILE20       0.0001
     33  N          3.6520  -16.3070   -5.9350 N.am   21  TRP21      -0.1988
     34  CA         3.3300  -17.6370   -6.4010 C.3    21  TRP21       0.1456
     35  C          2.5650  -17.6270   -7.7180 C.2    21  TRP21       0.1166
     36  O          1.8980  -18.6320   -8.0750 O.co2  21  TRP21      -0.3065
     37  CB         2.6690  -18.5180   -5.3120 C.3    21  TRP21       0.0562
     38  CG         1.5690  -17.9980   -4.3600 C.ar   21  TRP21       0.0005
     39  CD1        0.7990  -18.7930   -3.5490 C.ar   21  TRP21       0.0946
     40  CD2        1.2480  -16.6350   -3.9890 C.ar   21  TRP21       0.0152
     41  CE2        0.3020  -16.7070   -2.9250 C.ar   21  TRP21       0.0810
     42  CE3        1.6680  -15.3700   -4.4360 C.ar   21  TRP21       0.0012
     43  NE1        0.0520  -18.0350   -2.6840 N.ar   21  TRP21      -0.2442
     44  CZ2       -0.2230  -15.5590   -2.2950 C.ar   21  TRP21       0.0191
     45  CZ3        1.1420  -14.2140   -3.8060 C.ar   21  TRP21       0.0001
     46  CH2        0.2070  -14.3240   -2.7450 C.ar   21  TRP21       0.0015
     47  OXT        2.7400  -16.6140   -8.4280 O.co2  21  TRP21      -0.8460
@<TRIPOS>BOND
     1    47    35   ar
     2    36    35   ar
     3    35    34    1
     4    31    29    1
     5    32    30    1
     6    34    33    1
     7    34    37    1
     8    29    30    1
     9    29    26    1
    10    33    27   am
    11    37    38    1
    12    27    28    2
    13    27    26    1
    14    26    25    1
    15    42    40   ar
    16    42    45   ar
    17    38    40   ar
    18    38    39   ar
    19    40    41   ar
    20    45    46   ar
    21    25    19   am
    22    39    43   ar
    23    41    43   ar
    24    41    44   ar
    25     1     2    1
    26    46    44   ar
    27    19    20    2
    28    19    18    1
    29     4     3    2
    30    23    21    1
    31     2     3    1
    32     2     5    1
    33    21    18    1
    34    21    22    1
    35     3     9   am
    36    18    17    1
    37    17    11   am
    38     5     6    1
    39     6     8    1
    40     6     7    1
    41    22    24    1
    42     9    10    1
    43    11    12    2
    44    11    10    1
    45    10    13    1
    46    15    14   ar
    47    13    14    1
    48    14    16   ar
