@<TRIPOS>MOLECULE
../1EDN/XRAY_17-21_NOBACKBONE.pdb
 26 23 0 0 0
SMALL
GASTEIGER

@<TRIPOS>ATOM
      1  CB         5.6570  -21.0170   -0.8850 C.3    17  LEU17       0.0000
      2  CG         5.4050  -22.5400   -0.8470 C.3    17  LEU17       0.0000
      3  CD1        6.1110  -23.2140    0.3150 C.3    17  LEU17       0.0000
      4  CD2        3.9240  -22.7940   -0.7690 C.3    17  LEU17       0.0000
      5  CB         3.8720  -17.2370    1.5730 C.3    18  ASP18       0.0476
      6  CG         2.4440  -17.7210    1.8880 C.2    18  ASP18       0.0507
      7  OD1        1.8320  -18.4410    1.0660 O.co2  18  ASP18      -0.5492
      8  OD2        1.9260  -17.3730    2.9700 O.co2  18  ASP18      -0.5492
      9  CB         7.9140  -14.3690   -1.8400 C.3    19  ILE19       0.0000
     10  CG1        8.8760  -14.8240   -0.7490 C.3    19  ILE19       0.0000
     11  CG2        8.2810  -12.9320   -2.2380 C.3    19  ILE19       0.0000
     12  CD1        9.3280  -13.7050    0.1860 C.3    19  ILE19       0.0000
     13  CB         5.8140  -13.8870   -5.9550 C.3    20  ILE20       0.0000
     14  CG1        5.9530  -12.3980   -5.6400 C.3    20  ILE20       0.0000
     15  CG2        5.1640  -14.0490   -7.3150 C.3    20  ILE20       0.0000
     16  CD1        6.8340  -11.6390   -6.6010 C.3    20  ILE20       0.0000
     17  CB         2.6690  -18.5180   -5.3120 C.3    21  TRP21       0.0327
     18  CG         1.5690  -17.9980   -4.3600 C.ar   21  TRP21      -0.0013
     19  CD1        0.7990  -18.7930   -3.5490 C.ar   21  TRP21       0.0946
     20  CD2        1.2480  -16.6350   -3.9890 C.ar   21  TRP21       0.0152
     21  CE2        0.3020  -16.7070   -2.9250 C.ar   21  TRP21       0.0810
     22  CE3        1.6680  -15.3700   -4.4360 C.ar   21  TRP21       0.0012
     23  NE1        0.0520  -18.0350   -2.6840 N.ar   21  TRP21      -0.2442
     24  CZ2       -0.2230  -15.5590   -2.2950 C.ar   21  TRP21       0.0191
     25  CZ3        1.1420  -14.2140   -3.8060 C.ar   21  TRP21       0.0001
     26  CH2        0.2070  -14.3240   -2.7450 C.ar   21  TRP21       0.0015
@<TRIPOS>BOND
     1    15    13    1
     2    16    14    1
     3    13    14    1
     4    17    18    1
     5    22    20   ar
     6    22    25   ar
     7    18    20   ar
     8    18    19   ar
     9    20    21   ar
    10    25    26   ar
    11    19    23   ar
    12    21    23   ar
    13    21    24   ar
    14    26    24   ar
    15    11     9    1
    16     9    10    1
    17     1     2    1
    18     2     4    1
    19     2     3    1
    20    10    12    1
    21     7     6   ar
    22     5     6    1
    23     6     8   ar
@<TRIPOS>MOLECULE
104865
 39 42 0 0 0
SMALL
GASTEIGER

@<TRIPOS>ATOM
      1 S           4.6473  -11.8275   -1.9923 S.O2    1  LIG11       0.0736
      2 O           4.5860  -12.3114   -3.3568 O.2     1  LIG11      -0.1499
      3 O           5.7549  -11.0189   -1.5281 O.2     1  LIG11      -0.1499
      4 O           1.3799  -13.0177   -2.2077 O.3     1  LIG11      -0.4435
      5 O          -0.4828  -12.4222   -4.3213 O.3     1  LIG11      -0.4715
      6 O          -0.3934  -14.5181   -0.9384 O.3     1  LIG11      -0.4914
      7 O          -2.5961  -12.3274   -7.3052 O.3     1  LIG11      -0.3917
      8 N           3.2418  -10.9712   -1.6103 N.pl3   1  LIG11      -0.1963
      9 N           2.3982   -9.7114   -3.3074 N.ar    1  LIG11      -0.2044
     10 N           0.6270  -10.4276   -4.7285 N.ar    1  LIG11      -0.1866
     11 N           1.2679   -8.3153   -6.4535 N.ar    1  LIG11      -0.2331
     12 N           2.3599   -7.2361   -4.6229 N.ar    1  LIG11      -0.2331
     13 C           4.3074  -16.7018    1.7223 C.3     1  LIG11      -0.0127
     14 C           4.4271  -15.4658    0.8128 C.ar    1  LIG11      -0.0419
     15 C           2.8270  -17.1347    1.7795 C.3     1  LIG11      -0.0560
     16 C           4.7808  -16.4565    3.1721 C.3     1  LIG11      -0.0560
     17 C           5.1552  -17.8684    1.1659 C.3     1  LIG11      -0.0560
     18 C           4.1868  -15.5885   -0.5696 C.ar    1  LIG11      -0.0562
     19 C           4.7475  -14.1861    1.3036 C.ar    1  LIG11      -0.0562
     20 C           4.5491  -13.2284   -0.9055 C.ar    1  LIG11       0.1086
     21 C           4.2696  -14.4887   -1.4247 C.ar    1  LIG11      -0.0348
     22 C           4.8097  -13.0735    0.4547 C.ar    1  LIG11      -0.0348
     23 C           2.2904  -10.8806   -2.6622 C.ar    1  LIG11       0.1883
     24 C           1.4083  -11.8927   -2.9840 C.ar    1  LIG11       0.2307
     25 C           0.5672  -11.5805   -4.0343 C.ar    1  LIG11       0.2642
     26 C           1.5718   -9.5348   -4.3602 C.ar    1  LIG11       0.2027
     27 C           1.0361  -14.2228   -2.7855 C.ar    1  LIG11       0.1702
     28 C           1.7310   -8.2995   -5.1798 C.ar    1  LIG11       0.1978
     29 C          -0.7854  -12.5295   -5.7139 C.3     1  LIG11       0.1143
     30 C           0.1067  -15.0288   -2.1080 C.ar    1  LIG11       0.1621
     31 C           1.6425  -14.6706   -3.9669 C.ar    1  LIG11      -0.0157
     32 C          -0.2480  -16.2619   -2.6627 C.ar    1  LIG11      -0.0163
     33 C          -2.2213  -12.0849   -5.9539 C.3     1  LIG11       0.0783
     34 C           1.2791  -15.9013   -4.5089 C.ar    1  LIG11      -0.0581
     35 C           0.3313  -16.6912   -3.8617 C.ar    1  LIG11      -0.0581
     36 C           1.4717   -7.2073   -7.1880 C.ar    1  LIG11       0.0315
     37 C           2.5257   -6.1531   -5.4042 C.ar    1  LIG11       0.0315
     38 C           2.1012   -6.0845   -6.7091 C.ar    1  LIG11      -0.0254
     39 C          -1.3061  -15.3269   -0.2103 C.3     1  LIG11       0.0790
@<TRIPOS>BOND
     1     1     2    2
     2     1     3    2
     3     1     8    1
     4     1    20    1
     5     4    24    1
     6     4    27    1
     7     5    25    1
     8     5    29    1
     9     6    30    1
    10     6    39    1
    11     7    33    1
    12     8    23    1
    13     9    23   ar
    14     9    26   ar
    15    10    25   ar
    16    10    26   ar
    17    11    28   ar
    18    11    36   ar
    19    12    28   ar
    20    12    37   ar
    21    13    14    1
    22    13    15    1
    23    13    16    1
    24    13    17    1
    25    14    18   ar
    26    14    19   ar
    27    18    21   ar
    28    19    22   ar
    29    20    21   ar
    30    20    22   ar
    31    23    24   ar
    32    24    25   ar
    33    26    28    1
    34    27    30   ar
    35    27    31   ar
    36    29    33    1
    37    30    32   ar
    38    31    34   ar
    39    32    35   ar
    40    34    35   ar
    41    36    38   ar
    42    37    38   ar
@<TRIPOS>MOLECULE
../1EDN/XRAY_17-21.pdb
 47 48 0 0 0
SMALL
GASTEIGER

@<TRIPOS>ATOM
      1  N          6.4500  -19.7300   -2.8460 N.3    17  LEU17      -0.1231
      2  CA         5.2640  -20.1680   -2.1160 C.3    17  LEU17       0.1693
      3  C          4.7010  -18.8060   -1.6720 C.2    17  LEU17       0.2592
      4  O          4.3760  -17.9800   -2.5270 O.2    17  LEU17      -0.2718
      5  CB         5.6570  -21.0170   -0.8850 C.3    17  LEU17       0.0284
      6  CG         5.4050  -22.5400   -0.8470 C.3    17  LEU17       0.0019
      7  CD1        6.1110  -23.2140    0.3150 C.3    17  LEU17       0.0001
      8  CD2        3.9240  -22.7940   -0.7690 C.3    17  LEU17       0.0001
      9  N          4.7270  -18.4910   -0.3800 N.am   18  ASP18      -0.1962
     10  CA         4.1720  -17.2010    0.0630 C.3    18  ASP18       0.1783
     11  C          4.7750  -15.8130   -0.3500 C.2    18  ASP18       0.2620
     12  O          4.1570  -14.7710   -0.0750 O.2    18  ASP18      -0.2715
     13  CB         3.8720  -17.2370    1.5730 C.3    18  ASP18       0.0728
     14  CG         2.4440  -17.7210    1.8880 C.2    18  ASP18       0.0526
     15  OD1        1.8320  -18.4410    1.0660 O.co2  18  ASP18      -0.5491
     16  OD2        1.9260  -17.3730    2.9700 O.co2  18  ASP18      -0.5491
     17  N          5.9570  -15.7420   -0.9630 N.am   19  ILE19      -0.1963
     18  CA         6.4450  -14.4030   -1.3510 C.3    19  ILE19       0.1727
     19  C          5.5760  -13.9960   -2.5290 C.2    19  ILE19       0.2616
     20  O          4.8370  -13.0080   -2.4770 O.2    19  ILE19      -0.2715
     21  CB         7.9140  -14.3690   -1.8400 C.3    19  ILE19       0.0290
     22  CG1        8.8760  -14.8240   -0.7490 C.3    19  ILE19       0.0022
     23  CG2        8.2810  -12.9320   -2.2380 C.3    19  ILE19       0.0023
     24  CD1        9.3280  -13.7050    0.1860 C.3    19  ILE19       0.0001
     25  N          5.7170  -14.7750   -3.5990 N.am   20  ILE20      -0.1963
     26  CA         4.9770  -14.6140   -4.8450 C.3    20  ILE20       0.1727
     27  C          4.7560  -16.0550   -5.2510 C.2    20  ILE20       0.2615
     28  O          5.5820  -16.9240   -4.9410 O.2    20  ILE20      -0.2715
     29  CB         5.8140  -13.8870   -5.9550 C.3    20  ILE20       0.0290
     30  CG1        5.9530  -12.3980   -5.6400 C.3    20  ILE20       0.0022
     31  CG2        5.1640  -14.0490   -7.3150 C.3    20  ILE20       0.0023
     32  CD1        6.8340  -11.6390   -6.6010 C.3    20  ILE20       0.0001
     33  N          3.6520  -16.3070   -5.9350 N.am   21  TRP21      -0.1988
     34  CA         3.3300  -17.6370   -6.4010 C.3    21  TRP21       0.1456
     35  C          2.5650  -17.6270   -7.7180 C.2    21  TRP21       0.1166
     36  O          1.8980  -18.6320   -8.0750 O.co2  21  TRP21      -0.3065
     37  CB         2.6690  -18.5180   -5.3120 C.3    21  TRP21       0.0562
     38  CG         1.5690  -17.9980   -4.3600 C.ar   21  TRP21       0.0005
     39  CD1        0.7990  -18.7930   -3.5490 C.ar   21  TRP21       0.0946
     40  CD2        1.2480  -16.6350   -3.9890 C.ar   21  TRP21       0.0152
     41  CE2        0.3020  -16.7070   -2.9250 C.ar   21  TRP21       0.0810
     42  CE3        1.6680  -15.3700   -4.4360 C.ar   21  TRP21       0.0012
     43  NE1        0.0520  -18.0350   -2.6840 N.ar   21  TRP21      -0.2442
     44  CZ2       -0.2230  -15.5590   -2.2950 C.ar   21  TRP21       0.0191
     45  CZ3        1.1420  -14.2140   -3.8060 C.ar   21  TRP21       0.0001
     46  CH2        0.2070  -14.3240   -2.7450 C.ar   21  TRP21       0.0015
     47  OXT        2.7400  -16.6140   -8.4280 O.co2  21  TRP21      -0.8460
@<TRIPOS>BOND
     1    47    35   ar
     2    36    35   ar
     3    35    34    1
     4    31    29    1
     5    32    30    1
     6    34    33    1
     7    34    37    1
     8    29    30    1
     9    29    26    1
    10    33    27   am
    11    37    38    1
    12    27    28    2
    13    27    26    1
    14    26    25    1
    15    42    40   ar
    16    42    45   ar
    17    38    40   ar
    18    38    39   ar
    19    40    41   ar
    20    45    46   ar
    21    25    19   am
    22    39    43   ar
    23    41    43   ar
    24    41    44   ar
    25     1     2    1
    26    46    44   ar
    27    19    20    2
    28    19    18    1
    29     4     3    2
    30    23    21    1
    31     2     3    1
    32     2     5    1
    33    21    18    1
    34    21    22    1
    35     3     9   am
    36    18    17    1
    37    17    11   am
    38     5     6    1
    39     6     8    1
    40     6     7    1
    41    22    24    1
    42     9    10    1
    43    11    12    2
    44    11    10    1
    45    10    13    1
    46    15    14   ar
    47    13    14    1
    48    14    16   ar
