@<TRIPOS>MOLECULE
159594
 75 78 0 0 0
SMALL
GASTEIGER

@<TRIPOS>ATOM
      1 O          -3.4116    1.2558    1.9948 O.co2   1  LIG11      -0.5493
      2 O          -4.6146    1.1145    0.0562 O.co2   1  LIG11      -0.5493
      3 O          -1.9539   -4.5348   -1.5380 O.3     1  LIG11      -0.4526
      4 O           2.3245    3.0073    1.6995 O.2     1  LIG11      -0.2697
      5 O           0.2178   -5.3704   -0.9076 O.3     1  LIG11      -0.4526
      6 O          -2.3372    4.0179   -5.4759 O.3     1  LIG11      -0.4951
      7 N          -0.3060    1.7132    0.0956 N.4     1  LIG11       0.2481
      8 N           2.7464    2.5656   -0.5170 N.am    1  LIG11      -0.2971
      9 C          -2.3625    0.4942    0.0477 C.3     1  LIG11       0.0574
     10 C          -1.3861   -0.2610    0.9728 C.3     1  LIG11       0.0378
     11 C          -1.7870    1.8820   -0.2237 C.3     1  LIG11       0.0143
     12 C          -0.3378    0.8149    1.3125 C.3     1  LIG11      -0.0230
     13 C          -0.8586   -1.5850    0.4041 C.ar    1  LIG11      -0.0347
     14 C          -1.9780    2.4190   -1.6296 C.ar    1  LIG11       0.0011
     15 C           0.3986    3.0391    0.3120 C.3     1  LIG11       0.0468
     16 C          -3.6021    0.9670    0.7821 C.2     1  LIG11       0.0513
     17 C          -1.7022   -2.4047   -0.3765 C.ar    1  LIG11      -0.0125
     18 C           1.9062    2.8942    0.5492 C.2     1  LIG11       0.2608
     19 C           0.3974   -2.1182    0.7927 C.ar    1  LIG11      -0.0544
     20 C          -2.5767    3.6794   -1.7945 C.ar    1  LIG11      -0.0498
     21 C          -1.5593    1.7223   -2.7701 C.ar    1  LIG11      -0.0498
     22 C          -1.2526   -3.6453   -0.7857 C.ar    1  LIG11       0.1665
     23 C           0.8272   -3.3849    0.3673 C.ar    1  LIG11      -0.0159
     24 C          -0.0191   -4.1215   -0.4270 C.ar    1  LIG11       0.1662
     25 C          -2.7176    4.2504   -3.0609 C.ar    1  LIG11      -0.0195
     26 C          -1.7080    2.2959   -4.0361 C.ar    1  LIG11      -0.0195
     27 C           4.1418    2.2087   -0.1965 C.3     1  LIG11       0.0148
     28 C           2.3537    2.6023   -1.9365 C.3     1  LIG11       0.0148
     29 C          -2.2685    3.5667   -4.1873 C.ar    1  LIG11       0.1201
     30 C           4.3391    0.7632    0.2775 C.3     1  LIG11      -0.0374
     31 C           3.2677    3.4173   -2.8703 C.3     1  LIG11      -0.0374
     32 C          -1.0225   -5.6339   -1.5989 C.3     1  LIG11       0.2332
     33 C           4.0334    0.4777    1.7509 C.3     1  LIG11      -0.0545
     34 C           3.6948    4.8014   -2.3711 C.3     1  LIG11      -0.0545
     35 C           4.8667    1.2947    2.7300 C.3     1  LIG11      -0.0652
     36 C           2.5443    5.7760   -2.1958 C.3     1  LIG11      -0.0652
     37 C          -2.7099    5.3801   -5.6530 C.3     1  LIG11       0.0788
     38 H           0.1375    1.2017   -0.6721 H       1  LIG11       0.2045
     39 H          -2.6376   -0.0335   -0.8678 H       1  LIG11       0.0427
     40 H          -1.8663   -0.5715    1.9106 H       1  LIG11       0.0409
     41 H          -2.1215    2.6543    0.4845 H       1  LIG11       0.0911
     42 H          -0.6573    1.4277    2.1634 H       1  LIG11       0.0821
     43 H           0.6769    0.4598    1.4848 H       1  LIG11       0.0821
     44 H          -0.0536    3.5109    1.1929 H       1  LIG11       0.0913
     45 H           0.2011    3.6948   -0.5378 H       1  LIG11       0.0913
     46 H          -2.7192   -2.1186   -0.6316 H       1  LIG11       0.0658
     47 H           1.0519   -1.5911    1.4820 H       1  LIG11       0.0622
     48 H          -2.9670    4.2226   -0.9333 H       1  LIG11       0.0623
     49 H          -1.1398    0.7218   -2.6977 H       1  LIG11       0.0623
     50 H           1.7815   -3.7919    0.6844 H       1  LIG11       0.0655
     51 H          -3.2047    5.2177   -3.1302 H       1  LIG11       0.0654
     52 H          -1.3963    1.7430   -4.9194 H       1  LIG11       0.0654
     53 H           4.5297    2.9272    0.5319 H       1  LIG11       0.0464
     54 H           4.7554    2.3394   -1.0917 H       1  LIG11       0.0464
     55 H           1.3402    2.9886   -2.0435 H       1  LIG11       0.0464
     56 H           2.3252    1.5626   -2.2829 H       1  LIG11       0.0464
     57 H           5.3905    0.4970    0.1059 H       1  LIG11       0.0280
     58 H           3.7423    0.0872   -0.3466 H       1  LIG11       0.0280
     59 H           2.7617    3.5254   -3.8385 H       1  LIG11       0.0280
     60 H           4.1740    2.8373   -3.0833 H       1  LIG11       0.0280
     61 H          -0.7983   -5.8453   -2.6507 H       1  LIG11       0.1166
     62 H          -1.4928   -6.5194   -1.1550 H       1  LIG11       0.1166
     63 H           4.2323   -0.5841    1.9406 H       1  LIG11       0.0263
     64 H           2.9704    0.6236    1.9572 H       1  LIG11       0.0263
     65 H           4.4000    5.2252   -3.0970 H       1  LIG11       0.0263
     66 H           4.2453    4.7199   -1.4280 H       1  LIG11       0.0263
     67 H           5.9362    1.1259    2.5715 H       1  LIG11       0.0230
     68 H           4.6260    1.0058    3.7581 H       1  LIG11       0.0230
     69 H           4.6754    2.3674    2.6436 H       1  LIG11       0.0230
     70 H           2.0075    5.9215   -3.1381 H       1  LIG11       0.0230
     71 H           2.9289    6.7498   -1.8734 H       1  LIG11       0.0230
     72 H           1.8357    5.4306   -1.4392 H       1  LIG11       0.0230
     73 H          -2.6640    5.6030   -6.7230 H       1  LIG11       0.0660
     74 H          -2.0068    6.0475   -5.1424 H       1  LIG11       0.0660
     75 H          -3.7373    5.5596   -5.3201 H       1  LIG11       0.0660
@<TRIPOS>BOND
     1     1    16   ar
     2     2    16   ar
     3     3    22    1
     4     3    32    1
     5     4    18    2
     6     5    24    1
     7     5    32    1
     8     6    29    1
     9     6    37    1
    10     7    11    1
    11     7    12    1
    12     7    15    1
    13     8    18   am
    14     8    27    1
    15     8    28    1
    16     9    10    1
    17     9    11    1
    18     9    16    1
    19    10    12    1
    20    10    13    1
    21    11    14    1
    22    13    17   ar
    23    13    19   ar
    24    14    20   ar
    25    14    21   ar
    26    15    18    1
    27    17    22   ar
    28    19    23   ar
    29    20    25   ar
    30    21    26   ar
    31    22    24   ar
    32    23    24   ar
    33    25    29   ar
    34    26    29   ar
    35    27    30    1
    36    28    31    1
    37    30    33    1
    38    31    34    1
    39    33    35    1
    40    34    36    1
    41     7    38    1
    42     9    39    1
    43    10    40    1
    44    11    41    1
    45    12    42    1
    46    12    43    1
    47    15    44    1
    48    15    45    1
    49    17    46    1
    50    19    47    1
    51    20    48    1
    52    21    49    1
    53    23    50    1
    54    25    51    1
    55    26    52    1
    56    27    53    1
    57    27    54    1
    58    28    55    1
    59    28    56    1
    60    30    57    1
    61    30    58    1
    62    31    59    1
    63    31    60    1
    64    32    61    1
    65    32    62    1
    66    33    63    1
    67    33    64    1
    68    34    65    1
    69    34    66    1
    70    35    67    1
    71    35    68    1
    72    35    69    1
    73    36    70    1
    74    36    71    1
    75    36    72    1
    76    37    73    1
    77    37    74    1
    78    37    75    1
@<TRIPOS>MOLECULE
16219006
 85 88 0 0 0
SMALL
GASTEIGER

@<TRIPOS>ATOM
      1 O           4.2213   -0.9862    2.2555 O.2     1  PRO11      -0.2738
      2 O           3.2552    1.1050   -1.3622 O.2     5  ASP55      -0.2735
      3 O           1.9436   -1.8371   -1.7513 O.2     2  VAL22      -0.2738
      4 O          -0.5489    3.0042    1.1337 O.2     4  TRP44      -0.2738
      5 O          -0.6518   -1.2507    1.8135 O.2     3  LEU33      -0.2738
      6 OD1         3.0713    4.9368   -3.3284 O.co2   5  ASP55      -0.5497
      7 OD2         3.5757    4.6640   -1.1217 O.co2   5  ASP55      -0.5497
      8 N           3.4851    1.8359    0.7699 N.am    1  PRO11      -0.2884
      9 N           4.1827   -1.1025   -0.0323 N.am    2  VAL22      -0.3022
     10 N           0.5350    1.9409   -0.5870 N.am    5  ASP55      -0.3021
     11 N           1.2039   -2.7992    0.1820 N.am    3  LEU33      -0.3025
     12 N          -1.0968   -0.3073   -0.2373 N.am    4  TRP44      -0.3022
     13 NE1        -1.9534    1.6747   -4.1226 N.ar    4  TRP44      -0.3604
     14 CA          4.7034    1.0614    0.9939 C.3     1  PRO11       0.1023
     15 CB          5.3130    1.6700    2.2588 C.3     1  PRO11      -0.0243
     16 CG          4.1104    2.2501    2.9944 C.3     1  PRO11      -0.0350
     17 CD          3.2345    2.7597    1.8618 C.3     1  PRO11       0.0156
     18 C           4.3585   -0.4347    1.1647 C.2     1  PRO11       0.2342
     19 C           2.9170    1.9150   -0.4865 C.2     5  ASP55       0.2369
     20 CA          3.6259   -2.4466   -0.0843 C.3     2  VAL22       0.1017
     21 CA          1.6934    2.8446   -0.6799 C.3     5  ASP55       0.1047
     22 CB          4.5256   -3.4170   -0.8816 C.3     2  VAL22      -0.0197
     23 CA         -0.1891   -2.5738   -0.1731 C.3     3  LEU33       0.0996
     24 C           2.1974   -2.3255   -0.6518 C.2     2  VAL22       0.2342
     25 CB          1.7192    3.5067   -2.0476 C.3     5  ASP55       0.0138
     26 CA         -1.5672    0.9835    0.2789 C.3     4  TRP44       0.1034
     27 CB         -1.0691   -3.7725    0.1928 C.3     3  LEU33      -0.0236
     28 CG         -0.7283   -5.0675   -0.5750 C.3     3  LEU33      -0.0446
     29 C          -0.4568    2.0530    0.3579 C.2     4  TRP44       0.2343
     30 CB         -2.7751    1.4978   -0.5251 C.3     4  TRP44       0.0013
     31 C          -0.6645   -1.3212    0.5846 C.2     3  LEU33       0.2340
     32 CG1         4.7641   -3.0129   -2.3387 C.3     2  VAL22      -0.0605
     33 CG2         3.9864   -4.8501   -0.8195 C.3     2  VAL22      -0.0605
     34 CG         -2.4901    1.8344   -1.9628 C.ar    4  TRP44      -0.0201
     35 CG          2.9051    4.4562   -2.1712 C.2     5  ASP55       0.0440
     36 CD1        -1.6868   -6.1827   -0.1513 C.3     3  LEU33      -0.0626
     37 CD2        -0.7854   -4.8912   -2.0942 C.3     3  LEU33      -0.0626
     38 CD2        -2.4262    3.1523   -2.5257 C.ar    4  TRP44       0.0029
     39 CD1        -2.2491    0.9499   -2.9988 C.ar    4  TRP44       0.0060
     40 CE2        -2.0897    3.0178   -3.8721 C.ar    4  TRP44       0.0467
     41 CE3        -2.6062    4.4520   -2.0083 C.ar    4  TRP44      -0.0523
     42 CZ2        -1.9168    4.1135   -4.7256 C.ar    4  TRP44      -0.0378
     43 CZ3        -2.4510    5.5589   -2.8508 C.ar    4  TRP44      -0.0611
     44 CH2        -2.1080    5.3891   -4.1891 C.ar    4  TRP44      -0.0598
     45 H           3.9870   -0.4931   -0.8372 H       2  VAL22       0.1495
     46 H           0.5863    1.1213   -1.1741 H       5  ASP55       0.1495
     47 H           1.4119   -2.8076    1.1773 H       3  LEU33       0.1495
     48 H          -0.8319   -0.3404   -1.2152 H       4  TRP44       0.1495
     49 HE1        -1.6756    1.2896   -5.0144 H       4  TRP44       0.1653
     50 HA          5.3899    1.1687    0.1454 H       1  PRO11       0.0597
     51 HB1         5.9927    2.4854    1.9815 H       1  PRO11       0.0288
     52 HB2         5.8743    0.9574    2.8702 H       1  PRO11       0.0288
     53 HG1         4.3835    3.0376    3.7020 H       1  PRO11       0.0281
     54 HG2         3.5912    1.4579    3.5467 H       1  PRO11       0.0281
     55 HD1         2.1752    2.7695    2.1307 H       1  PRO11       0.0465
     56 HD2         3.5406    3.7626    1.5462 H       1  PRO11       0.0465
     57 HA          3.5560   -2.8343    0.9392 H       2  VAL22       0.0597
     58 HA          1.6237    3.6005    0.1052 H       5  ASP55       0.0598
     59 HB          5.5093   -3.4203   -0.3912 H       2  VAL22       0.0318
     60 HA         -0.2757   -2.3805   -1.2473 H       3  LEU33       0.0594
     61 HB1         0.7993    4.0824   -2.2047 H       5  ASP55       0.0348
     62 HB2         1.7763    2.7606   -2.8501 H       5  ASP55       0.0348
     63 HA         -1.8957    0.8162    1.3132 H       4  TRP44       0.0598
     64 HB1        -2.1193   -3.5078    0.0092 H       3  LEU33       0.0290
     65 HB2        -0.9900   -3.9700    1.2706 H       3  LEU33       0.0290
     66 HG          0.2883   -5.3816   -0.3072 H       3  LEU33       0.0296
     67 HB1        -3.1863    2.3813   -0.0213 H       4  TRP44       0.0337
     68 HB2        -3.5694    0.7394   -0.5044 H       4  TRP44       0.0337
     69 HG11        3.8505   -3.0793   -2.9368 H       2  VAL22       0.0233
     70 HG12        5.5026   -3.6788   -2.7997 H       2  VAL22       0.0233
     71 HG13        5.1540   -1.9932   -2.4134 H       2  VAL22       0.0233
     72 HG21        3.0259   -4.9434   -1.3371 H       2  VAL22       0.0233
     73 HG22        3.8471   -5.1706    0.2183 H       2  VAL22       0.0233
     74 HG23        4.6880   -5.5475   -1.2902 H       2  VAL22       0.0233
     75 HD11       -2.7223   -5.9344   -0.4088 H       3  LEU33       0.0232
     76 HD12       -1.6357   -6.3509    0.9293 H       3  LEU33       0.0232
     77 HD13       -1.4315   -7.1246   -0.6483 H       3  LEU33       0.0232
     78 HD21       -1.7447   -4.4673   -2.4095 H       3  LEU33       0.0232
     79 HD22       -0.6553   -5.8519   -2.6040 H       3  LEU33       0.0232
     80 HD23        0.0134   -4.2328   -2.4495 H       3  LEU33       0.0232
     81 HD1        -2.2279   -0.1305   -3.0317 H       4  TRP44       0.0810
     82 HE3        -2.8435    4.6029   -0.9595 H       4  TRP44       0.0624
     83 HZ2        -1.6202    3.9866   -5.7612 H       4  TRP44       0.0638
     84 HZ3        -2.5731    6.5605   -2.4474 H       4  TRP44       0.0618
     85 HH2        -1.9599    6.2617   -4.8206 H       4  TRP44       0.0618
@<TRIPOS>BOND
     1     1    18    2
     2     2    19    2
     3     3    24    2
     4     4    29    2
     5     5    31    2
     6     6    35   ar
     7     7    35   ar
     8     8    14    1
     9     8    17    1
    10     8    19   am
    11     9    18   am
    12     9    20    1
    13    10    21    1
    14    10    29   am
    15    11    23    1
    16    11    24   am
    17    12    26    1
    18    12    31   am
    19    13    39   ar
    20    13    40   ar
    21    14    15    1
    22    14    18    1
    23    15    16    1
    24    16    17    1
    25    19    21    1
    26    20    22    1
    27    20    24    1
    28    21    25    1
    29    22    32    1
    30    22    33    1
    31    23    27    1
    32    23    31    1
    33    25    35    1
    34    26    29    1
    35    26    30    1
    36    27    28    1
    37    28    36    1
    38    28    37    1
    39    30    34    1
    40    34    38   ar
    41    34    39   ar
    42    38    40   ar
    43    38    41   ar
    44    40    42   ar
    45    41    43   ar
    46    42    44   ar
    47    43    44   ar
    48     9    45    1
    49    10    46    1
    50    11    47    1
    51    12    48    1
    52    13    49    1
    53    14    50    1
    54    15    51    1
    55    15    52    1
    56    16    53    1
    57    16    54    1
    58    17    55    1
    59    17    56    1
    60    20    57    1
    61    21    58    1
    62    22    59    1
    63    23    60    1
    64    25    61    1
    65    25    62    1
    66    26    63    1
    67    27    64    1
    68    27    65    1
    69    28    66    1
    70    30    67    1
    71    30    68    1
    72    32    69    1
    73    32    70    1
    74    32    71    1
    75    33    72    1
    76    33    73    1
    77    33    74    1
    78    36    75    1
    79    36    76    1
    80    36    77    1
    81    37    78    1
    82    37    79    1
    83    37    80    1
    84    39    81    1
    85    41    82    1
    86    42    83    1
    87    43    84    1
    88    44    85    1
