@<TRIPOS>MOLECULE
23693553
 97 99 0 0 0
SMALL
GASTEIGER

@<TRIPOS>ATOM
      1 O           2.6445   -2.0801   -1.0345 O.2     1  LIG11      -0.2526
      2 O          -1.9965   -2.4469    1.1739 O.2     1  LIG11      -0.2731
      3 O          -2.7356    0.0931   -1.4140 O.2     1  LIG11      -0.2689
      4 O          -1.1202    1.9989    1.4353 O.co2   1  LIG11      -0.5479
      5 OXT         0.2186    0.4297    2.3949 O.co2   1  LIG11      -0.5479
      6 O          -8.2385    0.6825   -4.2800 O.3     1  LIG11      -0.4515
      7 O          -8.5843   -1.2529   -3.0643 O.2     1  LIG11      -0.2227
      8 N           3.5909   -0.9207    0.6977 N.am    1  LIG11      -0.2801
      9 N           1.5339   -2.0548    0.9547 N.am    1  LIG11      -0.2879
     10 N          -1.1450   -0.6937   -0.0011 N.am    1  LIG11      -0.2273
     11 N          -3.4196    1.2713    1.5956 N.4     1  LIG11       0.2276
     12 N          -7.0777    0.3172   -2.3387 N.ar    1  LIG11      -0.2526
     13 C           3.6215   -0.4702    2.1090 C.3     1  LIG11       0.0249
     14 C           4.6513   -0.4944   -0.2465 C.3     1  LIG11       0.0249
     15 C           4.5848    0.6887    2.4029 C.3     1  LIG11      -0.0344
     16 C           5.4159    0.7901    0.1154 C.3     1  LIG11      -0.0344
     17 C           4.7373    1.5986    1.2012 C.3     1  LIG11      -0.0497
     18 CA          0.2963   -2.7523    0.5401 C.3     1  LIG11       0.1019
     19 C          -0.7676   -4.4850   -1.2427 C.3     1  LIG11      -0.0356
     20 C           0.3598   -3.4880   -0.8233 C.3     1  LIG11      -0.0210
     21 C           2.5912   -1.7269    0.1417 C.2     1  LIG11       0.3033
     22 C           3.9080   -1.6238    3.0735 C.3     1  LIG11      -0.0464
     23 C           5.6425   -1.6293   -0.5307 C.3     1  LIG11      -0.0464
     24 C          -1.0076   -1.9107    0.6502 C.2     1  LIG11       0.2429
     25 C          -2.0298   -3.7657   -1.7547 C.3     1  LIG11      -0.0600
     26 C          -1.1387   -5.4550   -0.1119 C.3     1  LIG11      -0.0600
     27 C          -0.2220   -5.3194   -2.4267 C.3     1  LIG11      -0.0600
     28 CA         -0.0948    0.3544    0.0416 C.3     1  LIG11       0.0730
     29 C          -0.0923    1.3149   -1.1601 C.3     1  LIG11      -0.0286
     30 C          -2.4273   -0.2252   -0.2606 C.2     1  LIG11       0.2708
     31 CA         -3.4255   -0.0746    0.9248 C.3     1  LIG11       0.0579
     32 C           1.2796    1.9886   -1.3110 C.3     1  LIG11      -0.0513
     33 C          -4.8593   -0.4454    0.5364 C.3     1  LIG11       0.0261
     34 C          -0.2519    1.0661    1.4130 C.2     1  LIG11       0.0626
     35 C          -5.5693    0.2125   -0.6279 C.ar    1  LIG11      -0.0158
     36 C           1.3354    2.9977   -2.4568 C.3     1  LIG11      -0.0558
     37 C          -5.4222    1.4758   -1.3040 C.ar    1  LIG11       0.0038
     38 C          -6.6118   -0.4288   -1.2707 C.ar    1  LIG11       0.0202
     39 C          -6.4092    1.5444   -2.3088 C.ar    1  LIG11       0.0598
     40 C           0.6359    4.3053   -2.1219 C.3     1  LIG11      -0.0653
     41 C          -4.5373    2.5791   -1.1964 C.ar    1  LIG11      -0.0523
     42 C          -6.5705    2.7034   -3.1005 C.ar    1  LIG11      -0.0371
     43 C          -4.6946    3.7211   -1.9877 C.ar    1  LIG11      -0.0611
     44 C          -8.0473   -0.1696   -3.2466 C.2     1  LIG11       0.4196
     45 C          -5.7130    3.7872   -2.9183 C.ar    1  LIG11      -0.0598
     46 C          -9.1526    0.2417   -5.2861 C.3     1  LIG11       0.0835
     47 H           1.4172   -1.4943    1.7923 H       1  LIG11       0.1510
     48 H1         -3.4025    1.1887    2.6161 H       1  LIG11       0.2002
     49 H2         -2.4996    1.7613    1.4194 H       1  LIG11       0.2002
     50 H3         -4.1623    1.9086    1.3103 H       1  LIG11       0.2002
     51 H           2.6258   -0.0827    2.3296 H       1  LIG11       0.0498
     52 H           4.1448   -0.2741   -1.1966 H       1  LIG11       0.0498
     53 H           4.2172    1.2609    3.2629 H       1  LIG11       0.0283
     54 H           5.5722    0.3040    2.6907 H       1  LIG11       0.0283
     55 H           6.4337    0.5442    0.4467 H       1  LIG11       0.0283
     56 H           5.5422    1.4066   -0.7836 H       1  LIG11       0.0283
     57 H           3.7658    1.9753    0.8640 H       1  LIG11       0.0266
     58 H           5.3558    2.4654    1.4597 H       1  LIG11       0.0266
     59 HA          0.2011   -3.5144    1.3245 H       1  LIG11       0.0595
     60 H           0.4476   -2.7423   -1.6244 H       1  LIG11       0.0293
     61 H           1.2949   -4.0649   -0.8207 H       1  LIG11       0.0293
     62 H           4.8902   -2.0661    2.8750 H       1  LIG11       0.0248
     63 H           3.8960   -1.2694    4.1110 H       1  LIG11       0.0248
     64 H           3.1676   -2.4232    2.9926 H       1  LIG11       0.0248
     65 H           6.1736   -1.9249    0.3802 H       1  LIG11       0.0248
     66 H           5.1409   -2.5211   -0.9215 H       1  LIG11       0.0248
     67 H           6.3827   -1.3175   -1.2761 H       1  LIG11       0.0248
     68 H          -1.7741   -2.9710   -2.4647 H       1  LIG11       0.0235
     69 H          -2.6968   -4.4648   -2.2734 H       1  LIG11       0.0235
     70 H          -2.6223   -3.3251   -0.9528 H       1  LIG11       0.0235
     71 H          -0.2531   -5.9785    0.2646 H       1  LIG11       0.0235
     72 H          -1.6094   -4.9432    0.7318 H       1  LIG11       0.0235
     73 H          -1.8488   -6.2129   -0.4621 H       1  LIG11       0.0235
     74 H           0.6623   -5.8964   -2.1334 H       1  LIG11       0.0235
     75 H          -0.9713   -6.0318   -2.7921 H       1  LIG11       0.0235
     76 H           0.0608   -4.6741   -3.2661 H       1  LIG11       0.0235
     77 HA          0.8725   -0.1154    0.0351 H       1  LIG11       0.0567
     78 H          -0.2957    0.7531   -2.0802 H       1  LIG11       0.0287
     79 H          -0.8778    2.0713   -1.0648 H       1  LIG11       0.0287
     80 HA         -3.1339   -0.7249    1.7493 H       1  LIG11       0.0952
     81 H           1.5725    2.4746   -0.3728 H       1  LIG11       0.0266
     82 H           2.0272    1.2101   -1.5094 H       1  LIG11       0.0266
     83 H          -4.8547   -1.5268    0.3329 H       1  LIG11       0.0374
     84 H          -5.5047   -0.3164    1.4172 H       1  LIG11       0.0374
     85 H           2.3869    3.2161   -2.6776 H       1  LIG11       0.0263
     86 H           0.9024    2.5656   -3.3663 H       1  LIG11       0.0263
     87 H          -7.0408   -1.4090   -1.0921 H       1  LIG11       0.0818
     88 H           1.0630    4.7557   -1.2200 H       1  LIG11       0.0230
     89 H           0.7588    5.0180   -2.9442 H       1  LIG11       0.0230
     90 H          -0.4356    4.1599   -1.9606 H       1  LIG11       0.0230
     91 H          -3.6700    2.5640   -0.5504 H       1  LIG11       0.0624
     92 H          -7.3386    2.7751   -3.8638 H       1  LIG11       0.0638
     93 H          -3.9969    4.5490   -1.8862 H       1  LIG11       0.0618
     94 H          -5.8266    4.6740   -3.5372 H       1  LIG11       0.0618
     95 H          -8.7749    0.5807   -6.2553 H       1  LIG11       0.0661
     96 H          -9.2584   -0.8468   -5.3249 H       1  LIG11       0.0661
     97 H         -10.1254    0.7076   -5.1089 H       1  LIG11       0.0661
@<TRIPOS>BOND
     1     1    21    2
     2     2    24    2
     3     3    30    2
     4     4    34   ar
     5     5    34   ar
     6     6    44    1
     7     6    46    1
     8     7    44    2
     9     8    13    1
    10     8    14    1
    11     9    21   am
    12    10    24   am
    13    10    30   am
    14    12    39   ar
    15    12    38   ar
    16    12    44   am
    17    13    15    1
    18    13    22    1
    19    14    16    1
    20    14    23    1
    21    15    17    1
    22    16    17    1
    23    18     9    1
    24    18    24    1
    25    18    20    1
    26    19    20    1
    27    19    27    1
    28    19    26    1
    29    19    25    1
    30    21     8   am
    31    28    34    1
    32    28    29    1
    33    28    10    1
    34    29    32    1
    35    31    33    1
    36    31    11    1
    37    31    30    1
    38    32    36    1
    39    33    35    1
    40    35    38   ar
    41    35    37   ar
    42    36    40    1
    43    37    39   ar
    44    37    41   ar
    45    39    42   ar
    46    41    43   ar
    47    42    45   ar
    48    43    45   ar
    49     9    47    1
    50    11    48    1
    51    11    49    1
    52    11    50    1
    53    13    51    1
    54    14    52    1
    55    15    53    1
    56    15    54    1
    57    16    55    1
    58    16    56    1
    59    17    57    1
    60    17    58    1
    61    18    59    1
    62    20    60    1
    63    20    61    1
    64    22    62    1
    65    22    63    1
    66    22    64    1
    67    23    65    1
    68    23    66    1
    69    23    67    1
    70    25    68    1
    71    25    69    1
    72    25    70    1
    73    26    71    1
    74    26    72    1
    75    26    73    1
    76    27    74    1
    77    27    75    1
    78    27    76    1
    79    28    77    1
    80    29    78    1
    81    29    79    1
    82    31    80    1
    83    32    81    1
    84    32    82    1
    85    33    83    1
    86    33    84    1
    87    36    85    1
    88    36    86    1
    89    38    87    1
    90    40    88    1
    91    40    89    1
    92    40    90    1
    93    41    91    1
    94    42    92    1
    95    43    93    1
    96    45    94    1
    97    46    95    1
    98    46    96    1
    99    46    97    1
@<TRIPOS>MOLECULE
16219006
 85 88 0 0 0
SMALL
GASTEIGER

@<TRIPOS>ATOM
      1 O           4.3828   -0.9897    2.2518 O.2     1  PRO11      -0.2738
      2 O           3.3632    1.1771   -1.4258 O.2     5  ASP55      -0.2735
      3 O           2.1160   -1.9828   -1.8457 O.2     2  VAL22      -0.2738
      4 O          -0.3675    2.8122    1.3936 O.2     4  TRP44      -0.2738
      5 O          -0.2541   -1.2429    1.7528 O.2     3  LEU33      -0.2738
      6 OD1         0.7427    5.4042   -2.1812 O.co2   5  ASP55      -0.5497
      7 OD2        -0.7543    3.6917   -2.4445 O.co2   5  ASP55      -0.5497
      8 N           3.4532    1.8381    0.7293 N.am    1  PRO11      -0.2884
      9 N           4.1695   -1.0895   -0.0243 N.am    2  VAL22      -0.3022
     10 N           0.5078    1.7580   -0.4521 N.am    5  ASP55      -0.3021
     11 N           1.2681   -2.8396    0.1025 N.am    3  LEU33      -0.3025
     12 N          -1.1808   -0.3433   -0.1428 N.am    4  TRP44      -0.3022
     13 NE1        -5.5221   -0.9449   -0.0070 N.ar    4  TRP44      -0.3604
     14 CA          4.6856    1.0907    0.9871 C.3     1  PRO11       0.1023
     15 CB          5.2428    1.7305    2.2598 C.3     1  PRO11      -0.0243
     16 CG          3.9937    2.2041    2.9944 C.3     1  PRO11      -0.0350
     17 CD          3.0789    2.6605    1.8684 C.3     1  PRO11       0.0156
     18 C           4.3959   -0.4208    1.1618 C.2     1  PRO11       0.2342
     19 C           2.8914    1.8872   -0.5293 C.2     5  ASP55       0.2369
     20 CA          3.6941   -2.4696   -0.0593 C.3     2  VAL22       0.1017
     21 CA          1.5898    2.7018   -0.7275 C.3     5  ASP55       0.1047
     22 CB          4.6303   -3.3833   -0.8797 C.3     2  VAL22      -0.0197
     23 CA         -0.1079   -2.5457   -0.2790 C.3     3  LEU33       0.0996
     24 C           2.2986   -2.4040   -0.7050 C.2     2  VAL22       0.2342
     25 CB          1.5251    3.1920   -2.1682 C.3     5  ASP55       0.0138
     26 CA         -1.5897    0.9103    0.5103 C.3     4  TRP44       0.1034
     27 CB         -1.0523   -3.7069    0.0496 C.3     3  LEU33      -0.0236
     28 CG         -0.7282   -5.0211   -0.6890 C.3     3  LEU33      -0.0446
     29 C          -0.4129    1.9095    0.5596 C.2     4  TRP44       0.2343
     30 CB         -2.7830    1.5517   -0.2121 C.3     4  TRP44       0.0013
     31 C          -0.5086   -1.3172    0.5510 C.2     3  LEU33       0.2340
     32 CG1         4.0735   -4.8104   -0.9740 C.3     2  VAL22      -0.0605
     33 CG2         6.0319   -3.4367   -0.2620 C.3     2  VAL22      -0.0605
     34 CG         -4.0191    0.6839   -0.2954 C.ar    4  TRP44      -0.0201
     35 CG          0.3921    4.1948   -2.2633 C.2     5  ASP55       0.0440
     36 CD1        -1.7053   -6.1141   -0.2490 C.3     3  LEU33      -0.0626
     37 CD2        -0.7760   -4.8670   -2.2097 C.3     3  LEU33      -0.0626
     38 CD2        -5.1493    0.9302   -1.1448 C.ar    4  TRP44       0.0029
     39 CD1        -4.3058   -0.4740    0.4057 C.ar    4  TRP44       0.0060
     40 CE2        -6.0645   -0.1043   -0.9477 C.ar    4  TRP44       0.0467
     41 CE3        -5.4735    1.9444   -2.0686 C.ar    4  TRP44      -0.0523
     42 CZ2        -7.2848   -0.1803   -1.6304 C.ar    4  TRP44      -0.0378
     43 CZ3        -6.6933    1.8906   -2.7531 C.ar    4  TRP44      -0.0611
     44 CH2        -7.5836    0.8412   -2.5369 C.ar    4  TRP44      -0.0598
     45 H           3.9522   -0.5014   -0.8380 H       2  VAL22       0.1495
     46 H           0.3417    1.0532   -1.1559 H       5  ASP55       0.1495
     47 H           1.4440   -2.8112    1.1044 H       3  LEU33       0.1495
     48 H          -1.2858   -0.4024   -1.1492 H       4  TRP44       0.1495
     49 HE1        -5.9664   -1.7847    0.3347 H       4  TRP44       0.1653
     50 HA          5.3893    1.2109    0.1548 H       1  PRO11       0.0597
     51 HB1         5.8567    2.6002    1.9947 H       1  PRO11       0.0288
     52 HB2         5.8557    1.0574    2.8659 H       1  PRO11       0.0288
     53 HG1         4.2011    3.0002    3.7150 H       1  PRO11       0.0281
     54 HG2         3.5365    1.3670    3.5347 H       1  PRO11       0.0281
     55 HD1         2.0269    2.5270    2.1199 H       1  PRO11       0.0465
     56 HD2         3.2624    3.7085    1.6073 H       1  PRO11       0.0465
     57 HA          3.6076   -2.8586    0.9618 H       2  VAL22       0.0597
     58 HA          1.5499    3.5438   -0.0304 H       5  ASP55       0.0598
     59 HB          4.7254   -2.9894   -1.9001 H       2  VAL22       0.0318
     60 HA         -0.1682   -2.2929   -1.3419 H       3  LEU33       0.0594
     61 HB1         1.3588    2.3727   -2.8777 H       5  ASP55       0.0348
     62 HB2         2.4667    3.6782   -2.4537 H       5  ASP55       0.0348
     63 HA         -1.8495    0.6788    1.5510 H       4  TRP44       0.0598
     64 HB1        -2.0827   -3.4029   -0.1798 H       3  LEU33       0.0290
     65 HB2        -1.0290   -3.8983    1.1314 H       3  LEU33       0.0290
     66 HG          0.2814   -5.3479   -0.4103 H       3  LEU33       0.0296
     67 HB1        -2.4846    1.8179   -1.2347 H       4  TRP44       0.0337
     68 HB2        -3.0542    2.4899    0.2886 H       4  TRP44       0.0337
     69 HG11        3.9164   -5.2413    0.0210 H       2  VAL22       0.0233
     70 HG12        4.7645   -5.4629   -1.5188 H       2  VAL22       0.0233
     71 HG13        3.1183   -4.8335   -1.5083 H       2  VAL22       0.0233
     72 HG21        5.9962   -3.8034    0.7699 H       2  VAL22       0.0233
     73 HG22        6.5027   -2.4487   -0.2563 H       2  VAL22       0.0233
     74 HG23        6.6833   -4.1061   -0.8346 H       2  VAL22       0.0233
     75 HD11       -2.7368   -5.8538   -0.5103 H       3  LEU33       0.0232
     76 HD12       -1.6573   -6.2662    0.8344 H       3  LEU33       0.0232
     77 HD13       -1.4644   -7.0681   -0.7298 H       3  LEU33       0.0232
     78 HD21       -1.7395   -4.4629   -2.5378 H       3  LEU33       0.0232
     79 HD22       -0.6289   -5.8338   -2.7032 H       3  LEU33       0.0232
     80 HD23        0.0145   -4.2006   -2.5680 H       3  LEU33       0.0232
     81 HD1        -3.7399   -1.0115    1.1554 H       4  TRP44       0.0810
     82 HE3        -4.7809    2.7652   -2.2469 H       4  TRP44       0.0624
     83 HZ2        -7.9786   -0.9969   -1.4640 H       4  TRP44       0.0638
     84 HZ3        -6.9405    2.6780   -3.4602 H       4  TRP44       0.0618
     85 HH2        -8.5243    0.8166   -3.0811 H       4  TRP44       0.0618
@<TRIPOS>BOND
     1     1    18    2
     2     2    19    2
     3     3    24    2
     4     4    29    2
     5     5    31    2
     6     6    35   ar
     7     7    35   ar
     8     8    14    1
     9     8    17    1
    10     8    19   am
    11     9    18   am
    12     9    20    1
    13    10    21    1
    14    10    29   am
    15    11    23    1
    16    11    24   am
    17    12    26    1
    18    12    31   am
    19    13    39   ar
    20    13    40   ar
    21    14    15    1
    22    14    18    1
    23    15    16    1
    24    16    17    1
    25    19    21    1
    26    20    22    1
    27    20    24    1
    28    21    25    1
    29    22    32    1
    30    22    33    1
    31    23    27    1
    32    23    31    1
    33    25    35    1
    34    26    29    1
    35    26    30    1
    36    27    28    1
    37    28    36    1
    38    28    37    1
    39    30    34    1
    40    34    38   ar
    41    34    39   ar
    42    38    40   ar
    43    38    41   ar
    44    40    42   ar
    45    41    43   ar
    46    42    44   ar
    47    43    44   ar
    48     9    45    1
    49    10    46    1
    50    11    47    1
    51    12    48    1
    52    13    49    1
    53    14    50    1
    54    15    51    1
    55    15    52    1
    56    16    53    1
    57    16    54    1
    58    17    55    1
    59    17    56    1
    60    20    57    1
    61    21    58    1
    62    22    59    1
    63    23    60    1
    64    25    61    1
    65    25    62    1
    66    26    63    1
    67    27    64    1
    68    27    65    1
    69    28    66    1
    70    30    67    1
    71    30    68    1
    72    32    69    1
    73    32    70    1
    74    32    71    1
    75    33    72    1
    76    33    73    1
    77    33    74    1
    78    36    75    1
    79    36    76    1
    80    36    77    1
    81    37    78    1
    82    37    79    1
    83    37    80    1
    84    39    81    1
    85    41    82    1
    86    42    83    1
    87    43    84    1
    88    44    85    1
