@<TRIPOS>MOLECULE
6433095
 64 68 0 0 0
SMALL
GASTEIGER

@<TRIPOS>ATOM
      1 S          -0.4586   -1.8257   -0.6287 S.O2    1  LIG11       0.0908
      2 O           2.2152    0.3443    0.2356 O.3     1  LIG11      -0.4435
      3 O           2.0840    2.9128   -0.9323 O.3     1  LIG11      -0.4715
      4 O          -0.1535   -1.0273   -1.8016 O.2     1  LIG11      -0.1484
      5 O          -1.7309   -2.5052   -0.5041 O.2     1  LIG11      -0.1484
      6 O           2.0686    2.1371    2.4913 O.3     1  LIG11      -0.4914
      7 O           3.9760    5.1862   -0.9228 O.3     1  LIG11      -0.3917
      8 N          -0.2807   -0.8795    0.7803 N.pl3   1  LIG11      -0.1950
      9 N          -1.3211    1.1517    0.5153 N.ar    1  LIG11      -0.2073
     10 N          -0.1998    3.0384   -0.4091 N.ar    1  LIG11      -0.1899
     11 N           0.5150   -4.2008    0.1236 N.ar    1  LIG11      -0.2351
     12 N          -4.8533    4.7923    0.4769 N.ar    1  LIG11      -0.2552
     13 N          -6.3808    1.5839    1.3992 N.ar    1  LIG11      -0.5621
     14 N          -7.3040    3.6459    1.2819 N.ar    1  LIG11      -0.1535
     15 N          -7.6847    1.6197    1.7108 N.ar    1  LIG11      -0.3597
     16 N          -8.2701    2.8189    1.6567 N.ar    1  LIG11      -0.0878
     17 C          -0.1432    0.5083    0.4993 C.ar    1  LIG11       0.1882
     18 C           1.0606    1.0642    0.1196 C.ar    1  LIG11       0.2307
     19 C           0.9501    2.3358   -0.3981 C.ar    1  LIG11       0.2641
     20 C          -1.2908    2.4245    0.0852 C.ar    1  LIG11       0.1659
     21 C           0.8710   -3.0246   -0.4545 C.ar    1  LIG11       0.1969
     22 C          -2.5219    3.2260    0.1984 C.ar    1  LIG11       0.0227
     23 C           2.1201   -2.7592   -0.9993 C.ar    1  LIG11      -0.0160
     24 C           3.3118    0.9516    0.8213 C.ar    1  LIG11       0.1702
     25 C          -3.7453    2.6543    0.5849 C.ar    1  LIG11      -0.0252
     26 C           2.7591   -4.9922   -0.3466 C.ar    1  LIG11      -0.0322
     27 C           3.0806   -3.7646   -0.9331 C.ar    1  LIG11      -0.0541
     28 C          -2.5142    4.6070   -0.0488 C.ar    1  LIG11      -0.0328
     29 C           1.8670    4.1815   -1.5561 C.3     1  LIG11       0.1143
     30 C          -4.8783    3.4567    0.7145 C.ar    1  LIG11       0.0708
     31 C           1.4679   -5.1584    0.1516 C.ar    1  LIG11       0.0327
     32 C           3.2741    1.8540    1.9001 C.ar    1  LIG11       0.1621
     33 C           4.5441    0.5814    0.2697 C.ar    1  LIG11      -0.0157
     34 C          -3.6808    5.3344    0.1011 C.ar    1  LIG11       0.0289
     35 C           3.7421   -6.1207   -0.3253 C.3     1  LIG11      -0.0383
     36 C           3.2189    4.7054   -2.0336 C.3     1  LIG11       0.0783
     37 C           4.4725    2.3856    2.3929 C.ar    1  LIG11      -0.0163
     38 C           5.7310    1.1262    0.7595 C.ar    1  LIG11      -0.0581
     39 C           5.6939    2.0321    1.8164 C.ar    1  LIG11      -0.0581
     40 C          -6.1634    2.8874    1.1255 C.ar    1  LIG11       0.0207
     41 C           1.8873    3.5170    2.8116 C.3     1  LIG11       0.0790
     42 H           4.8883    5.3120   -1.2347 H       1  LIG11       0.2095
     43 H          -1.1136   -1.0380    1.3466 H       1  LIG11       0.1754
     44 H          -8.2039    0.7848    1.9683 H       1  LIG11       0.1651
     45 H           2.3384   -1.8104   -1.4759 H       1  LIG11       0.0653
     46 H          -3.8137    1.5876    0.7877 H       1  LIG11       0.0646
     47 H           4.0685   -3.5922   -1.3547 H       1  LIG11       0.0622
     48 H          -1.6038    5.1196   -0.3472 H       1  LIG11       0.0640
     49 H           1.4328    4.8901   -0.8406 H       1  LIG11       0.0720
     50 H           1.2063    4.0498   -2.4211 H       1  LIG11       0.0720
     51 H           1.1521   -6.1019    0.5894 H       1  LIG11       0.0833
     52 H           4.5776   -0.1261   -0.5540 H       1  LIG11       0.0655
     53 H          -3.6999    6.4056   -0.0782 H       1  LIG11       0.0830
     54 H           4.7713   -5.7467   -0.3510 H       1  LIG11       0.0278
     55 H           3.5849   -6.7702   -1.1921 H       1  LIG11       0.0278
     56 H           3.6333   -6.7136    0.5885 H       1  LIG11       0.0278
     57 H           3.7943    3.9110   -2.5204 H       1  LIG11       0.0591
     58 H           3.0824    5.5386   -2.7288 H       1  LIG11       0.0591
     59 H           4.4767    3.0648    3.2399 H       1  LIG11       0.0655
     60 H           6.6832    0.8420    0.3201 H       1  LIG11       0.0619
     61 H           6.6174    2.4555    2.2040 H       1  LIG11       0.0619
     62 H           0.8124    3.6973    2.9115 H       1  LIG11       0.0660
     63 H           2.2638    4.1767    2.0212 H       1  LIG11       0.0660
     64 H           2.3561    3.7536    3.7717 H       1  LIG11       0.0660
@<TRIPOS>BOND
     1     1     4    2
     2     1     5    2
     3     1     8    1
     4     1    21    1
     5     2    18    1
     6     2    24    1
     7     3    19    1
     8     3    29    1
     9     6    32    1
    10     6    41    1
    11     7    36    1
    12     8    17    1
    13     9    17   ar
    14     9    20   ar
    15    10    19   ar
    16    10    20   ar
    17    11    21   ar
    18    11    31   ar
    19    12    30   ar
    20    12    34   ar
    21    13    15   ar
    22    13    40   ar
    23    14    16   ar
    24    14    40   ar
    25    15    16   ar
    26    17    18   ar
    27    18    19   ar
    28    20    22    1
    29    21    23   ar
    30    22    25   ar
    31    22    28   ar
    32    23    27   ar
    33    24    32   ar
    34    24    33   ar
    35    25    30   ar
    36    26    27   ar
    37    26    31   ar
    38    26    35    1
    39    28    34   ar
    40    29    36    1
    41    30    40    1
    42    32    37   ar
    43    33    38   ar
    44    37    39   ar
    45    38    39   ar
    46     7    42    1
    47     8    43    1
    48    15    44    1
    49    23    45    1
    50    25    46    1
    51    27    47    1
    52    28    48    1
    53    29    49    1
    54    29    50    1
    55    31    51    1
    56    33    52    1
    57    34    53    1
    58    35    54    1
    59    35    55    1
    60    35    56    1
    61    36    57    1
    62    36    58    1
    63    37    59    1
    64    38    60    1
    65    39    61    1
    66    41    62    1
    67    41    63    1
    68    41    64    1
@<TRIPOS>MOLECULE
16219006
 85 88 0 0 0
SMALL
GASTEIGER

@<TRIPOS>ATOM
      1 O           4.3478   -1.0415    2.2428 O.2     1  PRO11      -0.2738
      2 O           3.1876    1.0799   -1.3272 O.2     5  ASP55      -0.2735
      3 O           1.8919   -1.8621   -1.7936 O.2     2  VAL22      -0.2738
      4 O          -0.2022    2.6488    1.5153 O.2     4  TRP44      -0.2738
      5 O          -0.7188   -1.2489    1.7796 O.2     3  LEU33      -0.2738
      6 OD1         3.5684    4.6940   -0.9928 O.co2   5  ASP55      -0.5497
      7 OD2         3.1025    4.9905   -3.2050 O.co2   5  ASP55      -0.5497
      8 N           3.5023    1.8158    0.7942 N.am    1  PRO11      -0.2884
      9 N           4.0947   -1.1067   -0.0320 N.am    2  VAL22      -0.3022
     10 N           0.4884    1.9891   -0.5699 N.am    5  ASP55      -0.3021
     11 N           1.1098   -2.7706    0.1471 N.am    3  LEU33      -0.3025
     12 N          -1.2057   -0.2635   -0.2394 N.am    4  TRP44      -0.3022
     13 NE1        -3.4986    5.0898    0.6401 N.ar    4  TRP44      -0.3604
     14 CA          4.7218    1.0306    0.9815 C.3     1  PRO11       0.1023
     15 CB          5.3782    1.6355    2.2251 C.3     1  PRO11      -0.0243
     16 CG          4.2059    2.2288    2.9965 C.3     1  PRO11      -0.0350
     17 CD          3.3046    2.7496    1.8897 C.3     1  PRO11       0.0156
     18 C           4.3789   -0.4659    1.1568 C.2     1  PRO11       0.2342
     19 C           2.8909    1.8938   -0.4402 C.2     5  ASP55       0.2369
     20 CA          3.5410   -2.4505   -0.0836 C.3     2  VAL22       0.1017
     21 CA          1.6864    2.8483   -0.6151 C.3     5  ASP55       0.1047
     22 CB          4.4637   -3.4187   -0.8565 C.3     2  VAL22      -0.0197
     23 CA         -0.2801   -2.5410   -0.2258 C.3     3  LEU33       0.0996
     24 C           2.1229   -2.3312   -0.6806 C.2     2  VAL22       0.2342
     25 CB          1.7395    3.5396   -1.9686 C.3     5  ASP55       0.0138
     26 CA         -1.5923    1.0327    0.3489 C.3     4  TRP44       0.1034
     27 CB         -1.1583   -3.7467    0.1268 C.3     3  LEU33      -0.0236
     28 CG         -0.7771   -5.0478   -0.6112 C.3     3  LEU33      -0.0446
     29 C          -0.3427    1.9262    0.5299 C.2     4  TRP44       0.2343
     30 CB         -2.6249    1.7202   -0.5637 C.3     4  TRP44       0.0013
     31 C          -0.7574   -1.2996    0.5525 C.2     3  LEU33       0.2340
     32 CG1         4.7332   -3.0167   -2.3093 C.3     2  VAL22      -0.0605
     33 CG2         3.9331   -4.8543   -0.8017 C.3     2  VAL22      -0.0605
     34 CG         -3.2404    2.9676   -0.0032 C.ar    4  TRP44      -0.0201
     35 CG          2.9240    4.4923   -2.0578 C.2     5  ASP55       0.0440
     36 CD1        -1.7146   -6.1781   -0.1800 C.3     3  LEU33      -0.0626
     37 CD2        -0.8161   -4.8987   -2.1334 C.3     3  LEU33      -0.0626
     38 CD2        -4.5637    3.1351    0.5247 C.ar    4  TRP44       0.0029
     39 CD1        -2.6319    4.2063    0.0616 C.ar    4  TRP44       0.0060
     40 CE2        -4.6956    4.4710    0.9106 C.ar    4  TRP44       0.0467
     41 CE3        -5.6697    2.2778    0.7053 C.ar    4  TRP44      -0.0523
     42 CZ2        -5.8713    4.9917    1.4650 C.ar    4  TRP44      -0.0378
     43 CZ3        -6.8560    2.7836    1.2523 C.ar    4  TRP44      -0.0611
     44 CH2        -6.9524    4.1215    1.6261 C.ar    4  TRP44      -0.0598
     45 H           3.8785   -0.4870   -0.8233 H       2  VAL22       0.1495
     46 H           0.5010    1.2178   -1.2222 H       5  ASP55       0.1495
     47 H           1.3046   -2.7761    1.1451 H       3  LEU33       0.1495
     48 H          -0.9688   -0.2849   -1.2241 H       4  TRP44       0.1495
     49 HE1        -3.2908    6.0596    0.8320 H       4  TRP44       0.1653
     50 HA          5.3815    1.1354    0.1114 H       1  PRO11       0.0597
     51 HB1         6.0562    2.4441    1.9243 H       1  PRO11       0.0288
     52 HB2         5.9522    0.9200    2.8207 H       1  PRO11       0.0288
     53 HG1         4.5084    3.0128    3.6959 H       1  PRO11       0.0281
     54 HG2         3.6932    1.4422    3.5627 H       1  PRO11       0.0281
     55 HD1         2.2582    2.7823    2.1970 H       1  PRO11       0.0465
     56 HD2         3.6190    3.7453    1.5609 H       1  PRO11       0.0465
     57 HA          3.4505   -2.8290    0.9417 H       2  VAL22       0.0597
     58 HA          1.6266    3.5872    0.1865 H       5  ASP55       0.0598
     59 HB          5.4364   -3.4136   -0.3443 H       2  VAL22       0.0318
     60 HA         -0.3566   -2.3333   -1.2974 H       3  LEU33       0.0594
     61 HB1         0.8218    4.1186   -2.1312 H       5  ASP55       0.0348
     62 HB2         1.8097    2.8100   -2.7853 H       5  ASP55       0.0348
     63 HA         -2.0166    0.8476    1.3432 H       4  TRP44       0.0598
     64 HB1        -2.2054   -3.4971   -0.0906 H       3  LEU33       0.0290
     65 HB2        -1.1091   -3.9305    1.2088 H       3  LEU33       0.0290
     66 HG          0.2421   -5.3348   -0.3236 H       3  LEU33       0.0296
     67 HB1        -3.4248    1.0037   -0.7928 H       4  TRP44       0.0337
     68 HB2        -2.1678    1.9642   -1.5324 H       4  TRP44       0.0337
     69 HG11        3.8348   -3.0935   -2.9287 H       2  VAL22       0.0233
     70 HG12        5.4891   -3.6767   -2.7504 H       2  VAL22       0.0233
     71 HG13        5.1152   -1.9935   -2.3785 H       2  VAL22       0.0233
     72 HG21        2.9838   -4.9549   -1.3378 H       2  VAL22       0.0233
     73 HG22        3.7758   -5.1730    0.2341 H       2  VAL22       0.0233
     74 HG23        4.6488   -5.5478   -1.2566 H       2  VAL22       0.0233
     75 HD11       -2.7526   -5.9586   -0.4525 H       3  LEU33       0.0232
     76 HD12       -1.6716   -6.3277    0.9040 H       3  LEU33       0.0232
     77 HD13       -1.4314   -7.1220   -0.6581 H       3  LEU33       0.0232
     78 HD21       -1.7851   -4.5157   -2.4705 H       3  LEU33       0.0232
     79 HD22       -0.6438   -5.8629   -2.6238 H       3  LEU33       0.0232
     80 HD23       -0.0364   -4.2175   -2.4876 H       3  LEU33       0.0232
     81 HD1        -1.6388    4.5278   -0.2304 H       4  TRP44       0.0810
     82 HE3        -5.6079    1.2328    0.4198 H       4  TRP44       0.0624
     83 HZ2        -5.9448    6.0337    1.7577 H       4  TRP44       0.0638
     84 HZ3        -7.7085    2.1230    1.3863 H       4  TRP44       0.0618
     85 HH2        -7.8808    4.4971    2.0491 H       4  TRP44       0.0618
@<TRIPOS>BOND
     1     1    18    2
     2     2    19    2
     3     3    24    2
     4     4    29    2
     5     5    31    2
     6     6    35   ar
     7     7    35   ar
     8     8    14    1
     9     8    17    1
    10     8    19   am
    11     9    18   am
    12     9    20    1
    13    10    21    1
    14    10    29   am
    15    11    23    1
    16    11    24   am
    17    12    26    1
    18    12    31   am
    19    13    39   ar
    20    13    40   ar
    21    14    15    1
    22    14    18    1
    23    15    16    1
    24    16    17    1
    25    19    21    1
    26    20    22    1
    27    20    24    1
    28    21    25    1
    29    22    32    1
    30    22    33    1
    31    23    27    1
    32    23    31    1
    33    25    35    1
    34    26    29    1
    35    26    30    1
    36    27    28    1
    37    28    36    1
    38    28    37    1
    39    30    34    1
    40    34    38   ar
    41    34    39   ar
    42    38    40   ar
    43    38    41   ar
    44    40    42   ar
    45    41    43   ar
    46    42    44   ar
    47    43    44   ar
    48     9    45    1
    49    10    46    1
    50    11    47    1
    51    12    48    1
    52    13    49    1
    53    14    50    1
    54    15    51    1
    55    15    52    1
    56    16    53    1
    57    16    54    1
    58    17    55    1
    59    17    56    1
    60    20    57    1
    61    21    58    1
    62    22    59    1
    63    23    60    1
    64    25    61    1
    65    25    62    1
    66    26    63    1
    67    27    64    1
    68    27    65    1
    69    28    66    1
    70    30    67    1
    71    30    68    1
    72    32    69    1
    73    32    70    1
    74    32    71    1
    75    33    72    1
    76    33    73    1
    77    33    74    1
    78    36    75    1
    79    36    76    1
    80    36    77    1
    81    37    78    1
    82    37    79    1
    83    37    80    1
    84    39    81    1
    85    41    82    1
    86    42    83    1
    87    43    84    1
    88    44    85    1
