@<TRIPOS>MOLECULE
108002
 64 68 0 0 0
SMALL
GASTEIGER

@<TRIPOS>ATOM
      1 O          -1.7047    3.6866    1.1154 O.co2   1  LIG11      -0.5495
      2 O          -2.6406    1.9864    2.2981 O.co2   1  LIG11      -0.5495
      3 O           2.9412   -2.7493   -0.2861 O.3     1  LIG11      -0.4920
      4 O           2.7182    2.5789    1.4131 O.3     1  LIG11      -0.4858
      5 O          -4.1835   -0.4545   -3.8458 O.3     1  LIG11      -0.4526
      6 O          -6.3421   -0.7428   -2.8039 O.3     1  LIG11      -0.4526
      7 O           3.3821    4.8577   -2.7441 O.3     1  LIG11      -0.4950
      8 O           4.4437    3.4121    4.1863 O.co2   1  LIG11      -0.5463
      9 O           4.9167    1.4438    3.1361 O.co2   1  LIG11      -0.5463
     10 C          -1.2834    1.4789    0.4011 C.3     1  LIG11       0.0203
     11 C           0.2680    1.3674    0.5720 C.3     1  LIG11       0.0218
     12 C          -1.8707    0.0588    0.5545 C.3     1  LIG11       0.0184
     13 C           0.5057   -0.1027    0.2520 C.ar    1  LIG11      -0.0320
     14 C          -0.6898   -0.8232    0.2318 C.ar    1  LIG11      -0.0353
     15 C          -3.0821   -0.1784   -0.3421 C.ar    1  LIG11      -0.0356
     16 C           1.1041    2.2927   -0.3203 C.ar    1  LIG11       0.0026
     17 C          -1.9072    2.4674    1.3870 C.2     1  LIG11       0.0466
     18 C           1.7197   -0.7637    0.0730 C.ar    1  LIG11      -0.0159
     19 C          -0.6985   -2.2001    0.0486 C.ar    1  LIG11      -0.0542
     20 C           1.7187   -2.1423   -0.1653 C.ar    1  LIG11       0.1208
     21 C           2.2910    2.9028    0.1428 C.ar    1  LIG11       0.1283
     22 C          -2.9699   -0.2130   -1.7446 C.ar    1  LIG11      -0.0124
     23 C          -4.3564   -0.3329    0.2523 C.ar    1  LIG11      -0.0543
     24 C           0.5141   -2.8599   -0.1495 C.ar    1  LIG11      -0.0196
     25 C           0.7255    2.5155   -1.6606 C.ar    1  LIG11      -0.0510
     26 C          -4.1149   -0.4065   -2.4869 C.ar    1  LIG11       0.1665
     27 C          -5.4997   -0.5397   -0.5253 C.ar    1  LIG11      -0.0159
     28 C           2.9963    3.7692   -0.7137 C.ar    1  LIG11       0.0221
     29 C           1.4469    3.3652   -2.5025 C.ar    1  LIG11      -0.0194
     30 C          -5.3449   -0.5692   -1.8933 C.ar    1  LIG11       0.1662
     31 C           2.5835    4.0041   -2.0285 C.ar    1  LIG11       0.1236
     32 C           3.0504   -3.7031   -1.3438 C.3     1  LIG11       0.0893
     33 C          -5.6032   -0.6061   -4.0339 C.3     1  LIG11       0.2332
     34 C           3.9341    3.2077    1.8690 C.3     1  LIG11       0.1287
     35 C           4.1645   -4.6786   -0.9724 C.3     1  LIG11      -0.0215
     36 C           4.4334    2.6132    3.1985 C.2     1  LIG11       0.0789
     37 C           3.0037    5.1001   -4.0907 C.3     1  LIG11       0.0788
     38 C           4.2900   -5.8120   -1.9756 C.3     1  LIG11      -0.0622
     39 H          -1.5515    1.8701   -0.5861 H       1  LIG11       0.0379
     40 H           0.5170    1.5338    1.6279 H       1  LIG11       0.0405
     41 H          -2.1316   -0.1766    1.5941 H       1  LIG11       0.0404
     42 H           2.6571   -0.2162    0.1422 H       1  LIG11       0.0657
     43 H          -1.6296   -2.7552    0.0909 H       1  LIG11       0.0622
     44 H          -2.0103   -0.0760   -2.2321 H       1  LIG11       0.0658
     45 H          -4.4481   -0.2593    1.3368 H       1  LIG11       0.0622
     46 H           0.5037   -3.9397   -0.2336 H       1  LIG11       0.0654
     47 H          -0.1506    2.0219   -2.0711 H       1  LIG11       0.0623
     48 H          -6.4732   -0.6486   -0.0633 H       1  LIG11       0.0655
     49 H           3.8920    4.2799   -0.3781 H       1  LIG11       0.0691
     50 H           1.0818    3.5035   -3.5121 H       1  LIG11       0.0654
     51 H           3.3065   -3.1714   -2.2678 H       1  LIG11       0.0696
     52 H           2.1298   -4.2666   -1.5221 H       1  LIG11       0.0696
     53 H          -5.7796   -1.4958   -4.6477 H       1  LIG11       0.1166
     54 H          -5.9810    0.2705   -4.5737 H       1  LIG11       0.1166
     55 H           3.7564    4.2853    1.9944 H       1  LIG11       0.0760
     56 H           4.7448    3.0463    1.1490 H       1  LIG11       0.0760
     57 H           3.9717   -5.0919    0.0252 H       1  LIG11       0.0295
     58 H           5.1156   -4.1389   -0.8977 H       1  LIG11       0.0295
     59 H           3.7378    5.7849   -4.5265 H       1  LIG11       0.0660
     60 H           2.0235    5.5849   -4.1471 H       1  LIG11       0.0660
     61 H           3.0238    4.1770   -4.6804 H       1  LIG11       0.0660
     62 H           3.3637   -6.3958   -2.0232 H       1  LIG11       0.0231
     63 H           5.0984   -6.4895   -1.6823 H       1  LIG11       0.0231
     64 H           4.5089   -5.4311   -2.9769 H       1  LIG11       0.0231
@<TRIPOS>BOND
     1     1    17   ar
     2     2    17   ar
     3     3    20    1
     4     3    32    1
     5     4    21    1
     6     4    34    1
     7     5    26    1
     8     5    33    1
     9     6    30    1
    10     6    33    1
    11     7    31    1
    12     7    37    1
    13     8    36   ar
    14     9    36   ar
    15    10    11    1
    16    10    12    1
    17    10    17    1
    18    11    13    1
    19    11    16    1
    20    12    14    1
    21    12    15    1
    22    13    14   ar
    23    13    18   ar
    24    14    19   ar
    25    15    22   ar
    26    15    23   ar
    27    16    21   ar
    28    16    25   ar
    29    18    20   ar
    30    19    24   ar
    31    20    24   ar
    32    21    28   ar
    33    22    26   ar
    34    23    27   ar
    35    25    29   ar
    36    26    30   ar
    37    27    30   ar
    38    28    31   ar
    39    29    31   ar
    40    32    35    1
    41    34    36    1
    42    35    38    1
    43    10    39    1
    44    11    40    1
    45    12    41    1
    46    18    42    1
    47    19    43    1
    48    22    44    1
    49    23    45    1
    50    24    46    1
    51    25    47    1
    52    27    48    1
    53    28    49    1
    54    29    50    1
    55    32    51    1
    56    32    52    1
    57    33    53    1
    58    33    54    1
    59    34    55    1
    60    34    56    1
    61    35    57    1
    62    35    58    1
    63    37    59    1
    64    37    60    1
    65    37    61    1
    66    38    62    1
    67    38    63    1
    68    38    64    1
@<TRIPOS>MOLECULE
16219006
 85 88 0 0 0
SMALL
GASTEIGER

@<TRIPOS>ATOM
      1 O           4.2345   -1.0782    2.2496 O.2     1  PRO11      -0.2738
      2 O           3.1078    0.9791   -1.3433 O.2     5  ASP55      -0.2735
      3 O           2.1200   -2.4392   -1.9213 O.2     2  VAL22      -0.2738
      4 O          -0.4976    2.9678    1.2261 O.2     4  TRP44      -0.2738
      5 O          -0.1578   -0.9930    1.7335 O.2     3  LEU33      -0.2738
      6 OD1         2.9444    5.0041   -3.2952 O.co2   5  ASP55      -0.5497
      7 OD2         3.5868    4.5276   -1.1597 O.co2   5  ASP55      -0.5497
      8 N           3.3864    1.7626    0.7665 N.am    1  PRO11      -0.2884
      9 N           4.1322   -1.1731   -0.0337 N.am    2  VAL22      -0.3022
     10 N           0.4242    1.9516   -0.6181 N.am    5  ASP55      -0.3021
     11 N           1.3293   -2.7338    0.2080 N.am    3  LEU33      -0.3025
     12 N          -1.1352   -0.2765   -0.2085 N.am    4  TRP44      -0.3022
     13 NE1        -5.6908   -0.6234    0.0162 N.ar    4  TRP44      -0.3604
     14 CA          4.6115    0.9971    0.9892 C.3     1  PRO11       0.1023
     15 CB          5.2292    1.6202    2.2443 C.3     1  PRO11      -0.0243
     16 CG          4.0320    2.2110    2.9782 C.3     1  PRO11      -0.0350
     17 CD          3.1565    2.7117    1.8416 C.3     1  PRO11       0.0156
     18 C           4.3099   -0.5095    1.1618 C.2     1  PRO11       0.2342
     19 C           2.8103    1.8263   -0.4866 C.2     5  ASP55       0.2369
     20 CA          3.7550   -2.5792   -0.1144 C.3     2  VAL22       0.1017
     21 CA          1.6249    2.7998   -0.7074 C.3     5  ASP55       0.1047
     22 CB          4.7631   -3.3752   -0.9712 C.3     2  VAL22      -0.0197
     23 CA         -0.0580   -2.4937   -0.1645 C.3     3  LEU33       0.0996
     24 C           2.3399   -2.5946   -0.7219 C.2     2  VAL22       0.2342
     25 CB          1.6885    3.4389   -2.0842 C.3     5  ASP55       0.0138
     26 CA         -1.5998    0.9869    0.3804 C.3     4  TRP44       0.1034
     27 CB         -1.0001   -3.6129    0.3027 C.3     3  LEU33      -0.0236
     28 CG         -0.9346   -4.9058   -0.5388 C.3     3  LEU33      -0.0446
     29 C          -0.4723    2.0362    0.4251 C.2     4  TRP44       0.2343
     30 CB         -2.7741    1.5915   -0.4037 C.3     4  TRP44       0.0013
     31 C          -0.4429   -1.1882    0.5522 C.2     3  LEU33       0.2340
     32 CG1         4.3108   -4.8266   -1.1713 C.3     2  VAL22      -0.0605
     33 CG2         6.1505   -3.3764   -0.3166 C.3     2  VAL22      -0.0605
     34 CG         -3.9499    0.6642   -0.5151 C.ar    4  TRP44      -0.0201
     35 CG          2.8575    4.4113   -2.1826 C.2     5  ASP55       0.0440
     36 CD1         0.3586   -5.6940   -0.3292 C.3     3  LEU33      -0.0626
     37 CD2        -2.1268   -5.8051   -0.1955 C.3     3  LEU33      -0.0626
     38 CD2        -4.4670    0.0709   -1.7120 C.ar    4  TRP44       0.0029
     39 CD1        -4.7398    0.2167    0.5265 C.ar    4  TRP44       0.0060
     40 CE2        -5.5490   -0.7313   -1.3470 C.ar    4  TRP44       0.0467
     41 CE3        -4.1147    0.1414   -3.0758 C.ar    4  TRP44      -0.0523
     42 CZ2        -6.2941   -1.4686   -2.2753 C.ar    4  TRP44      -0.0378
     43 CZ3        -4.8510   -0.5867   -4.0176 C.ar    4  TRP44      -0.0611
     44 CH2        -5.9241   -1.3802   -3.6203 C.ar    4  TRP44      -0.0598
     45 H           3.9162   -0.5761   -0.8417 H       2  VAL22       0.1495
     46 H           0.4785    1.0759   -1.1228 H       5  ASP55       0.1495
     47 H           1.5676   -2.5137    1.1741 H       3  LEU33       0.1495
     48 H          -1.3386   -0.4676   -1.1823 H       4  TRP44       0.1495
     49 HE1        -6.4000   -1.0965    0.5580 H       4  TRP44       0.1653
     50 HA          5.2916    1.1160    0.1364 H       1  PRO11       0.0597
     51 HB1         5.9083    2.4317    1.9535 H       1  PRO11       0.0288
     52 HB2         5.7941    0.9163    2.8622 H       1  PRO11       0.0288
     53 HG1         4.3096    3.0053    3.6766 H       1  PRO11       0.0281
     54 HG2         3.5119    1.4255    3.5389 H       1  PRO11       0.0281
     55 HD1         2.1000    2.7430    2.1173 H       1  PRO11       0.0465
     56 HD2         3.4758    3.7042    1.5061 H       1  PRO11       0.0465
     57 HA          3.7155   -3.0139    0.8916 H       2  VAL22       0.0597
     58 HA          1.5799    3.5701    0.0653 H       5  ASP55       0.0598
     59 HB          4.8560   -2.9084   -1.9604 H       2  VAL22       0.0318
     60 HA         -0.1506   -2.3523   -1.2466 H       3  LEU33       0.0594
     61 HB1         0.7625    3.9926   -2.2837 H       5  ASP55       0.0348
     62 HB2         1.7921    2.6841   -2.8734 H       5  ASP55       0.0348
     63 HA         -1.8938    0.7842    1.4179 H       4  TRP44       0.0598
     64 HB1        -2.0284   -3.2284    0.2570 H       3  LEU33       0.0290
     65 HB2        -0.8126   -3.8490    1.3588 H       3  LEU33       0.0290
     66 HG         -1.0119   -4.6436   -1.6015 H       3  LEU33       0.0296
     67 HB1        -2.4391    1.8834   -1.4072 H       4  TRP44       0.0337
     68 HB2        -3.1047    2.5189    0.0825 H       4  TRP44       0.0337
     69 HG11        4.1133   -5.3177   -0.2121 H       2  VAL22       0.0233
     70 HG12        5.0772   -5.4068   -1.6967 H       2  VAL22       0.0233
     71 HG13        3.4000   -4.8794   -1.7752 H       2  VAL22       0.0233
     72 HG21        6.1141   -3.8165    0.6864 H       2  VAL22       0.0233
     73 HG22        6.5513   -2.3618   -0.2276 H       2  VAL22       0.0233
     74 HG23        6.8619   -3.9581   -0.9131 H       2  VAL22       0.0233
     75 HD11        0.5540   -5.8666    0.7344 H       3  LEU33       0.0232
     76 HD12        1.2156   -5.1718   -0.7565 H       3  LEU33       0.0232
     77 HD13        0.3076   -6.6699   -0.8247 H       3  LEU33       0.0232
     78 HD21       -2.1093   -6.1027    0.8587 H       3  LEU33       0.0232
     79 HD22       -2.1165   -6.7157   -0.8049 H       3  LEU33       0.0232
     80 HD23       -3.0735   -5.2896   -0.3891 H       3  LEU33       0.0232
     81 HD1        -4.6973    0.4207    1.5888 H       4  TRP44       0.0810
     82 HE3        -3.2860    0.7630   -3.4034 H       4  TRP44       0.0624
     83 HZ2        -7.1330   -2.0844   -1.9691 H       4  TRP44       0.0638
     84 HZ3        -4.5820   -0.5256   -5.0694 H       4  TRP44       0.0618
     85 HH2        -6.4852   -1.9361   -4.3677 H       4  TRP44       0.0618
@<TRIPOS>BOND
     1     1    18    2
     2     2    19    2
     3     3    24    2
     4     4    29    2
     5     5    31    2
     6     6    35   ar
     7     7    35   ar
     8     8    14    1
     9     8    17    1
    10     8    19   am
    11     9    18   am
    12     9    20    1
    13    10    21    1
    14    10    29   am
    15    11    23    1
    16    11    24   am
    17    12    26    1
    18    12    31   am
    19    13    39   ar
    20    13    40   ar
    21    14    15    1
    22    14    18    1
    23    15    16    1
    24    16    17    1
    25    19    21    1
    26    20    22    1
    27    20    24    1
    28    21    25    1
    29    22    32    1
    30    22    33    1
    31    23    27    1
    32    23    31    1
    33    25    35    1
    34    26    29    1
    35    26    30    1
    36    27    28    1
    37    28    36    1
    38    28    37    1
    39    30    34    1
    40    34    38   ar
    41    34    39   ar
    42    38    40   ar
    43    38    41   ar
    44    40    42   ar
    45    41    43   ar
    46    42    44   ar
    47    43    44   ar
    48     9    45    1
    49    10    46    1
    50    11    47    1
    51    12    48    1
    52    13    49    1
    53    14    50    1
    54    15    51    1
    55    15    52    1
    56    16    53    1
    57    16    54    1
    58    17    55    1
    59    17    56    1
    60    20    57    1
    61    21    58    1
    62    22    59    1
    63    23    60    1
    64    25    61    1
    65    25    62    1
    66    26    63    1
    67    27    64    1
    68    27    65    1
    69    28    66    1
    70    30    67    1
    71    30    68    1
    72    32    69    1
    73    32    70    1
    74    32    71    1
    75    33    72    1
    76    33    73    1
    77    33    74    1
    78    36    75    1
    79    36    76    1
    80    36    77    1
    81    37    78    1
    82    37    79    1
    83    37    80    1
    84    39    81    1
    85    41    82    1
    86    42    83    1
    87    43    84    1
    88    44    85    1
