@<TRIPOS>MOLECULE
../1EDN/3STEPMIN_17-21_NOBACKBONE.pdb
 26 23 0 0 0
SMALL
GASTEIGER

@<TRIPOS>ATOM
      1  CB        -6.9230   -0.4370    0.2770 C.3    17  LEU17       0.0000
      2  CG        -6.4950   -1.8450   -0.1910 C.3    17  LEU17       0.0000
      3  CD1       -6.5150   -2.8060    0.9980 C.3    17  LEU17       0.0000
      4  CD2       -7.4310   -2.4140   -1.2600 C.3    17  LEU17       0.0000
      5  CB        -9.0510    3.1310    2.7840 C.3    18  ASP18       0.1258
      6  CG       -10.5470    3.4340    2.8500 C.2    18  ASP18       0.3654
      7  OD1      -11.3300    2.4930    2.5610 O.co2  18  ASP18      -0.2456
      8  OD2      -10.9050    4.5930    3.1470 O.co2  18  ASP18      -0.2456
      9  CB        -4.3960    5.7260    0.0740 C.3    19  ILE19       0.0000
     10  CG2       -3.6150    6.9530   -0.4300 C.3    19  ILE19       0.0000
     11  CG1       -3.7730    5.2100    1.3920 C.3    19  ILE19       0.0000
     12  CD1       -3.8620    6.1700    2.5820 C.3    19  ILE19       0.0000
     13  CB        -6.0900    6.2460   -4.5940 C.3    20  ILE20       0.0000
     14  CG2       -6.7980    6.2490   -5.9680 C.3    20  ILE20       0.0000
     15  CG1       -5.7140    7.6970   -4.2070 C.3    20  ILE20       0.0000
     16  CD1       -4.7810    8.4150   -5.1910 C.3    20  ILE20       0.0000
     17  CB        -9.7020    1.6830   -3.5450 C.3    21  TRP21       0.0327
     18  CG       -10.4970    2.2370   -2.3850 C.ar   21  TRP21      -0.0013
     19  CD1      -10.6860    1.5470   -1.2340 C.ar   21  TRP21       0.0946
     20  NE1      -11.3350    2.3340   -0.3040 N.ar   21  TRP21      -0.2442
     21  CE2      -11.5720    3.5950   -0.7990 C.ar   21  TRP21       0.0810
     22  CZ2      -12.0950    4.7480   -0.2000 C.ar   21  TRP21       0.0191
     23  CH2      -12.2340    5.9130   -0.9670 C.ar   21  TRP21       0.0015
     24  CZ3      -11.8800    5.8920   -2.3260 C.ar   21  TRP21       0.0001
     25  CE3      -11.3480    4.7280   -2.9100 C.ar   21  TRP21       0.0012
     26  CD2      -11.1270    3.5500   -2.1550 C.ar   21  TRP21       0.0152
@<TRIPOS>BOND
     1    14    13    1
     2    16    15    1
     3    13    15    1
     4    17    18    1
     5    25    24   ar
     6    25    26   ar
     7    18    26   ar
     8    18    19   ar
     9    24    23   ar
    10    26    21   ar
    11     4     2    1
    12    19    20   ar
    13    23    22   ar
    14    21    20   ar
    15    21    22   ar
    16    10     9    1
    17     2     1    1
    18     2     3    1
    19     9    11    1
    20    11    12    1
    21     7     6   ar
    22     5     6    1
    23     6     8   ar
@<TRIPOS>MOLECULE
46174111
 44 47 0 0 0
SMALL
GASTEIGER

@<TRIPOS>ATOM
      1 CL         -8.1423    0.2795    1.8754 Cl      1  LIG11      -0.0762
      2 S         -10.2322    1.3575   -1.2143 S.O2    1  LIG11       0.0758
      3 S         -11.3771    5.2658   -2.4814 S.2     1  LIG11      -0.0918
      4 O          -5.7011    6.9006   -3.2066 O.3     1  LIG11      -0.4526
      5 O          -5.1254    7.7456   -5.3902 O.3     1  LIG11      -0.4526
      6 O          -8.7660    2.5780   -3.5560 O.2     1  LIG11      -0.2911
      7 O         -10.6821    0.6342   -2.3824 O.2     1  LIG11      -0.1499
      8 O         -10.6942    1.0256    0.1160 O.2     1  LIG11      -0.1499
      9 O          -7.3373   -0.5881   -1.8282 O.2     1  LIG11      -0.3364
     10 N          -8.5398    1.4596   -1.2367 N.pl3   1  LIG11      -0.1821
     11 N          -6.7984   -1.7024   -1.2101 N.ar    1  LIG11      -0.0798
     12 C          -8.4210    5.2677   -5.0878 C.ar    1  LIG11      -0.0333
     13 C          -9.6067    4.3277   -4.9313 C.3     1  LIG11       0.0366
     14 C          -8.0995    5.8046   -6.3709 C.ar    1  LIG11      -0.0432
     15 C         -10.8575    2.9653   -1.4858 C.ar    1  LIG11       0.1261
     16 C         -10.5416    3.7673   -2.5764 C.ar    1  LIG11       0.0814
     17 C          -7.6411    5.6442   -3.9751 C.ar    1  LIG11      -0.0123
     18 C          -9.6038    3.4821   -3.6635 C.2     1  LIG11       0.1759
     19 C          -6.5590    6.4759   -4.1723 C.ar    1  LIG11       0.1665
     20 C          -6.2330    6.9582   -5.4125 C.ar    1  LIG11       0.1665
     21 C          -6.9802    6.6455   -6.5253 C.ar    1  LIG11      -0.0130
     22 C          -8.8913    5.4509   -7.6035 C.3     1  LIG11      -0.0393
     23 C         -11.8010    3.5827   -0.6039 C.ar    1  LIG11      -0.0273
     24 C          -4.7759    7.6807   -3.9924 C.3     1  LIG11       0.2332
     25 C         -12.1645    4.8372   -1.0318 C.ar    1  LIG11      -0.0217
     26 C          -7.9313    0.2136   -0.9008 C.ar    1  LIG11       0.2554
     27 C          -7.7376   -0.3341    0.3465 C.ar    1  LIG11       0.1262
     28 C          -7.0378   -1.5397    0.0978 C.ar    1  LIG11       0.1009
     29 C          -6.5573   -2.5446    1.0735 C.3     1  LIG11      -0.0176
     30 H          -8.2952    1.6945   -2.2135 H       1  LIG11       0.1768
     31 H         -10.5371    4.8901   -5.0439 H       1  LIG11       0.0394
     32 H          -9.5924    3.5990   -5.7530 H       1  LIG11       0.0394
     33 H          -7.8412    5.2914   -2.9694 H       1  LIG11       0.0658
     34 H          -6.6973    7.0423   -7.4956 H       1  LIG11       0.0658
     35 H          -9.9658    5.4419   -7.3943 H       1  LIG11       0.0278
     36 H          -8.5840    4.4688   -7.9759 H       1  LIG11       0.0278
     37 H          -8.7336    6.1875   -8.3991 H       1  LIG11       0.0278
     38 H         -12.1919    3.1251    0.2991 H       1  LIG11       0.0643
     39 H          -3.7777    7.2374   -3.8999 H       1  LIG11       0.1166
     40 H          -4.7469    8.6996   -3.5900 H       1  LIG11       0.1166
     41 H         -12.8557    5.5228   -0.5591 H       1  LIG11       0.0694
     42 H          -6.0765   -3.3928    0.5753 H       1  LIG11       0.0294
     43 H          -7.3915   -2.9325    1.6664 H       1  LIG11       0.0294
     44 H          -5.8268   -2.0967    1.7548 H       1  LIG11       0.0294
@<TRIPOS>BOND
     1     1    27    1
     2     2    10    1
     3     2    15    1
     4     2     8    2
     5     2     7    2
     6     3    16   ar
     7     3    25   ar
     8     4    24    1
     9     4    19    1
    10     5    20    1
    11     5    24    1
    12     6    18    2
    13     9    11   ar
    14     9    26   ar
    15    10    26    1
    16    11    28   ar
    17    12    17   ar
    18    12    14   ar
    19    13    18    1
    20    13    12    1
    21    14    21   ar
    22    14    22    1
    23    15    23   ar
    24    15    16   ar
    25    16    18    1
    26    17    19   ar
    27    19    20   ar
    28    20    21   ar
    29    23    25   ar
    30    26    27   ar
    31    27    28   ar
    32    28    29    1
    33    10    30    1
    34    13    31    1
    35    13    32    1
    36    17    33    1
    37    21    34    1
    38    22    35    1
    39    22    36    1
    40    22    37    1
    41    23    38    1
    42    24    39    1
    43    24    40    1
    44    25    41    1
    45    29    42    1
    46    29    43    1
    47    29    44    1
@<TRIPOS>MOLECULE
../1EDN/3STEPMIN_17-21.pdb
 47 48 0 0 0
SMALL
GASTEIGER

@<TRIPOS>ATOM
      1  N         -5.4290    0.8830   -1.1740 N.3    17  LEU17      -0.1231
      2  CA        -6.8230    0.6710   -0.7980 C.3    17  LEU17       0.1693
      3  CB        -6.9230   -0.4370    0.2770 C.3    17  LEU17       0.0284
      4  CG        -6.4950   -1.8450   -0.1910 C.3    17  LEU17       0.0019
      5  CD1       -6.5150   -2.8060    0.9980 C.3    17  LEU17       0.0001
      6  CD2       -7.4310   -2.4140   -1.2600 C.3    17  LEU17       0.0001
      7  C         -7.3990    2.0370   -0.3760 C.2    17  LEU17       0.2592
      8  O         -7.4670    2.9330   -1.2040 O.2    17  LEU17      -0.2718
      9  N         -7.7380    2.2560    0.8970 N.am   18  ASP18      -0.1960
     10  CA        -8.5130    3.4280    1.3730 C.3    18  ASP18       0.1840
     11  CB        -9.0510    3.1310    2.7840 C.3    18  ASP18       0.1450
     12  CG       -10.5470    3.4340    2.8500 C.2    18  ASP18       0.3671
     13  OD1      -11.3300    2.4930    2.5610 O.co2  18  ASP18      -0.2456
     14  OD2      -10.9050    4.5930    3.1470 O.co2  18  ASP18      -0.2456
     15  C         -7.8270    4.8120    1.2910 C.2    18  ASP18       0.2622
     16  O         -8.3890    5.8210    1.7350 O.2    18  ASP18      -0.2715
     17  N         -6.6250    4.8510    0.7010 N.am   19  ILE19      -0.1963
     18  CA        -5.9180    6.0210    0.1680 C.3    19  ILE19       0.1727
     19  CB        -4.3960    5.7260    0.0740 C.3    19  ILE19       0.0290
     20  CG2       -3.6150    6.9530   -0.4300 C.3    19  ILE19       0.0023
     21  CG1       -3.7730    5.2100    1.3920 C.3    19  ILE19       0.0022
     22  CD1       -3.8620    6.1700    2.5820 C.3    19  ILE19       0.0001
     23  C         -6.4970    6.4050   -1.2110 C.2    19  ILE19       0.2616
     24  O         -7.0070    7.5130   -1.3720 O.2    19  ILE19      -0.2715
     25  N         -6.3950    5.4980   -2.1940 N.am   20  ILE20      -0.1963
     26  CA        -6.9990    5.5490   -3.5400 C.3    20  ILE20       0.1727
     27  CB        -6.0900    6.2460   -4.5940 C.3    20  ILE20       0.0290
     28  CG2       -6.7980    6.2490   -5.9680 C.3    20  ILE20       0.0023
     29  CG1       -5.7140    7.6970   -4.2070 C.3    20  ILE20       0.0022
     30  CD1       -4.7810    8.4150   -5.1910 C.3    20  ILE20       0.0001
     31  C         -7.3180    4.1070   -3.9880 C.2    20  ILE20       0.2617
     32  O         -6.4020    3.3070   -4.2100 O.2    20  ILE20      -0.2715
     33  N         -8.6100    3.8210   -4.1620 N.am   21  TRP21      -0.1938
     34  CA        -9.2240    2.5950   -4.7020 C.3    21  TRP21       0.2021
     35  CB        -9.7020    1.6830   -3.5450 C.3    21  TRP21       0.0612
     36  CG       -10.4970    2.2370   -2.3850 C.ar   21  TRP21       0.0007
     37  CD1      -10.6860    1.5470   -1.2340 C.ar   21  TRP21       0.0946
     38  NE1      -11.3350    2.3340   -0.3040 N.ar   21  TRP21      -0.2442
     39  CE2      -11.5720    3.5950   -0.7990 C.ar   21  TRP21       0.0810
     40  CZ2      -12.0950    4.7480   -0.2000 C.ar   21  TRP21       0.0191
     41  CH2      -12.2340    5.9130   -0.9670 C.ar   21  TRP21       0.0015
     42  CZ3      -11.8800    5.8920   -2.3260 C.ar   21  TRP21       0.0001
     43  CE3      -11.3480    4.7280   -2.9100 C.ar   21  TRP21       0.0012
     44  CD2      -11.1270    3.5500   -2.1550 C.ar   21  TRP21       0.0152
     45  C        -10.3230    2.8760   -5.7330 C.2    21  TRP21       0.3845
     46  O        -11.0800    1.9620   -6.0950 O.co2  21  TRP21      -0.2437
     47  OXT      -10.4270    4.0430   -6.2080 O.co2  21  TRP21      -0.2437
@<TRIPOS>BOND
     1    47    45   ar
     2    46    45   ar
     3    28    27    1
     4    45    34    1
     5    30    29    1
     6    34    33    1
     7    34    35    1
     8    27    29    1
     9    27    26    1
    10    32    31    2
    11    33    31   am
    12    31    26    1
    13    35    36    1
    14    26    25    1
    15    43    42   ar
    16    43    44   ar
    17    36    44   ar
    18    36    37   ar
    19    42    41   ar
    20    25    23   am
    21    44    39   ar
    22    24    23    2
    23     6     4    1
    24    37    38   ar
    25    23    18    1
    26     8     7    2
    27     1     2    1
    28    41    40   ar
    29    39    38   ar
    30    39    40   ar
    31     2     7    1
    32     2     3    1
    33    20    19    1
    34     7     9   am
    35     4     3    1
    36     4     5    1
    37    19    18    1
    38    19    21    1
    39    18    17    1
    40    17    15   am
    41     9    10    1
    42    15    10    1
    43    15    16    2
    44    10    11    1
    45    21    22    1
    46    13    12   ar
    47    11    12    1
    48    12    14   ar
