@<TRIPOS>MOLECULE
../1EDN/3STEPMIN_17-21_NOBACKBONE.pdb
 26 23 0 0 0
SMALL
GASTEIGER

@<TRIPOS>ATOM
      1  CB        -6.9230   -0.4370    0.2770 C.3    17  LEU17       0.0000
      2  CG        -6.4950   -1.8450   -0.1910 C.3    17  LEU17       0.0000
      3  CD1       -6.5150   -2.8060    0.9980 C.3    17  LEU17       0.0000
      4  CD2       -7.4310   -2.4140   -1.2600 C.3    17  LEU17       0.0000
      5  CB        -9.0510    3.1310    2.7840 C.3    18  ASP18       0.1258
      6  CG       -10.5470    3.4340    2.8500 C.2    18  ASP18       0.3654
      7  OD1      -11.3300    2.4930    2.5610 O.co2  18  ASP18      -0.2456
      8  OD2      -10.9050    4.5930    3.1470 O.co2  18  ASP18      -0.2456
      9  CB        -4.3960    5.7260    0.0740 C.3    19  ILE19       0.0000
     10  CG2       -3.6150    6.9530   -0.4300 C.3    19  ILE19       0.0000
     11  CG1       -3.7730    5.2100    1.3920 C.3    19  ILE19       0.0000
     12  CD1       -3.8620    6.1700    2.5820 C.3    19  ILE19       0.0000
     13  CB        -6.0900    6.2460   -4.5940 C.3    20  ILE20       0.0000
     14  CG2       -6.7980    6.2490   -5.9680 C.3    20  ILE20       0.0000
     15  CG1       -5.7140    7.6970   -4.2070 C.3    20  ILE20       0.0000
     16  CD1       -4.7810    8.4150   -5.1910 C.3    20  ILE20       0.0000
     17  CB        -9.7020    1.6830   -3.5450 C.3    21  TRP21       0.0327
     18  CG       -10.4970    2.2370   -2.3850 C.ar   21  TRP21      -0.0013
     19  CD1      -10.6860    1.5470   -1.2340 C.ar   21  TRP21       0.0946
     20  NE1      -11.3350    2.3340   -0.3040 N.ar   21  TRP21      -0.2442
     21  CE2      -11.5720    3.5950   -0.7990 C.ar   21  TRP21       0.0810
     22  CZ2      -12.0950    4.7480   -0.2000 C.ar   21  TRP21       0.0191
     23  CH2      -12.2340    5.9130   -0.9670 C.ar   21  TRP21       0.0015
     24  CZ3      -11.8800    5.8920   -2.3260 C.ar   21  TRP21       0.0001
     25  CE3      -11.3480    4.7280   -2.9100 C.ar   21  TRP21       0.0012
     26  CD2      -11.1270    3.5500   -2.1550 C.ar   21  TRP21       0.0152
@<TRIPOS>BOND
     1    14    13    1
     2    16    15    1
     3    13    15    1
     4    17    18    1
     5    25    24   ar
     6    25    26   ar
     7    18    26   ar
     8    18    19   ar
     9    24    23   ar
    10    26    21   ar
    11     4     2    1
    12    19    20   ar
    13    23    22   ar
    14    21    20   ar
    15    21    22   ar
    16    10     9    1
    17     2     1    1
    18     2     3    1
    19     9    11    1
    20    11    12    1
    21     7     6   ar
    22     5     6    1
    23     6     8   ar
@<TRIPOS>MOLECULE
16004692
 52 54 0 0 0
SMALL
GASTEIGER

@<TRIPOS>ATOM
      1 BR        -14.1953    8.7433   -1.5525 Br      1  LIG11      -0.0503
      2 BR         -3.1379    9.9421   -5.6034 Br      1  LIG11      -0.0472
      3 S         -12.1741    1.5651    0.9934 S.O2    1  LIG11       0.1104
      4 O          -8.8962    4.7819   -2.6656 O.3     1  LIG11      -0.4724
      5 O         -11.5684    0.2585    0.9747 O.2     1  LIG11      -0.1381
      6 O         -13.4450    1.7868    1.6446 O.2     1  LIG11      -0.1381
      7 O          -7.1343    5.5421   -5.7836 O.3     1  LIG11      -0.4590
      8 N         -11.0387    2.6333    1.6363 N.3     1  LIG11      -0.1771
      9 N         -12.3400    2.1461   -0.5778 N.pl3   1  LIG11      -0.1889
     10 N         -10.4649    1.1994   -1.5117 N.ar    1  LIG11      -0.2186
     11 N          -8.7160    2.4617   -2.4786 N.ar    1  LIG11      -0.2008
     12 N          -6.0076    7.1682   -4.5160 N.ar    1  LIG11      -0.2022
     13 N          -5.6123    6.8745   -6.8529 N.ar    1  LIG11      -0.2022
     14 C         -10.6892    2.4291    3.0663 C.3     1  LIG11       0.0185
     15 C         -10.7279    3.6025   -1.7313 C.ar    1  LIG11       0.0848
     16 C         -11.1327    2.3426   -1.3005 C.ar    1  LIG11       0.1532
     17 C         -11.7593    2.9480    4.0143 C.3     1  LIG11      -0.0416
     18 C         -11.5572    4.8307   -1.6606 C.ar    1  LIG11      -0.0094
     19 C          -9.4604    3.5732   -2.3107 C.ar    1  LIG11       0.2276
     20 C         -11.2555    2.9514    5.4502 C.3     1  LIG11      -0.0641
     21 C         -12.2108    5.2420   -0.4868 C.ar    1  LIG11      -0.0527
     22 C         -11.7332    5.6376   -2.8049 C.ar    1  LIG11      -0.0527
     23 C          -7.7957    4.7283   -3.5780 C.3     1  LIG11       0.1252
     24 C         -13.0025    6.3982   -0.4542 C.ar    1  LIG11      -0.0472
     25 C         -12.5052    6.8037   -2.7753 C.ar    1  LIG11      -0.0472
     26 C          -9.2736    1.3156   -2.0953 C.ar    1  LIG11       0.1219
     27 C          -8.1463    5.5951   -4.7841 C.3     1  LIG11       0.1267
     28 C         -13.1405    7.1767   -1.5973 C.ar    1  LIG11       0.0179
     29 C          -6.2325    6.5782   -5.7023 C.ar    1  LIG11       0.3180
     30 C          -5.0875    8.1574   -4.5176 C.ar    1  LIG11       0.0483
     31 C          -4.7066    7.8731   -6.7958 C.ar    1  LIG11       0.0483
     32 C          -4.4027    8.5571   -5.6415 C.ar    1  LIG11       0.0543
     33 H         -10.1827    2.5114    1.0925 H       1  LIG11       0.1493
     34 H         -12.9240    1.4688   -1.0657 H       1  LIG11       0.1763
     35 H         -10.4591    1.3740    3.2529 H       1  LIG11       0.0442
     36 H          -9.7557    2.9800    3.2363 H       1  LIG11       0.0442
     37 H         -12.0634    3.9621    3.7305 H       1  LIG11       0.0275
     38 H         -12.6524    2.3172    3.9645 H       1  LIG11       0.0275
     39 H         -10.4062    3.6328    5.5656 H       1  LIG11       0.0230
     40 H         -12.0475    3.2774    6.1312 H       1  LIG11       0.0230
     41 H         -10.9350    1.9500    5.7556 H       1  LIG11       0.0230
     42 H         -12.1215    4.6707    0.4336 H       1  LIG11       0.0624
     43 H         -11.2636    5.3634   -3.7481 H       1  LIG11       0.0624
     44 H          -6.9125    5.1169   -3.0603 H       1  LIG11       0.0731
     45 H          -7.5317    3.7258   -3.9330 H       1  LIG11       0.0731
     46 H         -13.5029    6.6746    0.4701 H       1  LIG11       0.0629
     47 H         -12.6041    7.4051   -3.6752 H       1  LIG11       0.0629
     48 H          -8.7086    0.4042   -2.2570 H       1  LIG11       0.1049
     49 H          -8.4152    6.6192   -4.4899 H       1  LIG11       0.0732
     50 H          -9.0582    5.1922   -5.2423 H       1  LIG11       0.0732
     51 H          -4.9198    8.6272   -3.5525 H       1  LIG11       0.0843
     52 H          -4.2241    8.1052   -7.7409 H       1  LIG11       0.0843
@<TRIPOS>BOND
     1     1    28    1
     2     2    32    1
     3     3     5    2
     4     3     6    2
     5     3     8    1
     6     3     9    1
     7     4    19    1
     8     4    23    1
     9     7    27    1
    10     7    29    1
    11     8    14    1
    12     9    16    1
    13    10    16   ar
    14    10    26   ar
    15    11    19   ar
    16    11    26   ar
    17    12    29   ar
    18    12    30   ar
    19    13    29   ar
    20    13    31   ar
    21    14    17    1
    22    15    16   ar
    23    15    18    1
    24    15    19   ar
    25    17    20    1
    26    18    21   ar
    27    18    22   ar
    28    21    24   ar
    29    22    25   ar
    30    23    27    1
    31    24    28   ar
    32    25    28   ar
    33    30    32   ar
    34    31    32   ar
    35     8    33    1
    36     9    34    1
    37    14    35    1
    38    14    36    1
    39    17    37    1
    40    17    38    1
    41    20    39    1
    42    20    40    1
    43    20    41    1
    44    21    42    1
    45    22    43    1
    46    23    44    1
    47    23    45    1
    48    24    46    1
    49    25    47    1
    50    26    48    1
    51    27    49    1
    52    27    50    1
    53    30    51    1
    54    31    52    1
@<TRIPOS>MOLECULE
../1EDN/3STEPMIN_17-21.pdb
 47 48 0 0 0
SMALL
GASTEIGER

@<TRIPOS>ATOM
      1  N         -5.4290    0.8830   -1.1740 N.3    17  LEU17      -0.1231
      2  CA        -6.8230    0.6710   -0.7980 C.3    17  LEU17       0.1693
      3  CB        -6.9230   -0.4370    0.2770 C.3    17  LEU17       0.0284
      4  CG        -6.4950   -1.8450   -0.1910 C.3    17  LEU17       0.0019
      5  CD1       -6.5150   -2.8060    0.9980 C.3    17  LEU17       0.0001
      6  CD2       -7.4310   -2.4140   -1.2600 C.3    17  LEU17       0.0001
      7  C         -7.3990    2.0370   -0.3760 C.2    17  LEU17       0.2592
      8  O         -7.4670    2.9330   -1.2040 O.2    17  LEU17      -0.2718
      9  N         -7.7380    2.2560    0.8970 N.am   18  ASP18      -0.1960
     10  CA        -8.5130    3.4280    1.3730 C.3    18  ASP18       0.1840
     11  CB        -9.0510    3.1310    2.7840 C.3    18  ASP18       0.1450
     12  CG       -10.5470    3.4340    2.8500 C.2    18  ASP18       0.3671
     13  OD1      -11.3300    2.4930    2.5610 O.co2  18  ASP18      -0.2456
     14  OD2      -10.9050    4.5930    3.1470 O.co2  18  ASP18      -0.2456
     15  C         -7.8270    4.8120    1.2910 C.2    18  ASP18       0.2622
     16  O         -8.3890    5.8210    1.7350 O.2    18  ASP18      -0.2715
     17  N         -6.6250    4.8510    0.7010 N.am   19  ILE19      -0.1963
     18  CA        -5.9180    6.0210    0.1680 C.3    19  ILE19       0.1727
     19  CB        -4.3960    5.7260    0.0740 C.3    19  ILE19       0.0290
     20  CG2       -3.6150    6.9530   -0.4300 C.3    19  ILE19       0.0023
     21  CG1       -3.7730    5.2100    1.3920 C.3    19  ILE19       0.0022
     22  CD1       -3.8620    6.1700    2.5820 C.3    19  ILE19       0.0001
     23  C         -6.4970    6.4050   -1.2110 C.2    19  ILE19       0.2616
     24  O         -7.0070    7.5130   -1.3720 O.2    19  ILE19      -0.2715
     25  N         -6.3950    5.4980   -2.1940 N.am   20  ILE20      -0.1963
     26  CA        -6.9990    5.5490   -3.5400 C.3    20  ILE20       0.1727
     27  CB        -6.0900    6.2460   -4.5940 C.3    20  ILE20       0.0290
     28  CG2       -6.7980    6.2490   -5.9680 C.3    20  ILE20       0.0023
     29  CG1       -5.7140    7.6970   -4.2070 C.3    20  ILE20       0.0022
     30  CD1       -4.7810    8.4150   -5.1910 C.3    20  ILE20       0.0001
     31  C         -7.3180    4.1070   -3.9880 C.2    20  ILE20       0.2617
     32  O         -6.4020    3.3070   -4.2100 O.2    20  ILE20      -0.2715
     33  N         -8.6100    3.8210   -4.1620 N.am   21  TRP21      -0.1938
     34  CA        -9.2240    2.5950   -4.7020 C.3    21  TRP21       0.2021
     35  CB        -9.7020    1.6830   -3.5450 C.3    21  TRP21       0.0612
     36  CG       -10.4970    2.2370   -2.3850 C.ar   21  TRP21       0.0007
     37  CD1      -10.6860    1.5470   -1.2340 C.ar   21  TRP21       0.0946
     38  NE1      -11.3350    2.3340   -0.3040 N.ar   21  TRP21      -0.2442
     39  CE2      -11.5720    3.5950   -0.7990 C.ar   21  TRP21       0.0810
     40  CZ2      -12.0950    4.7480   -0.2000 C.ar   21  TRP21       0.0191
     41  CH2      -12.2340    5.9130   -0.9670 C.ar   21  TRP21       0.0015
     42  CZ3      -11.8800    5.8920   -2.3260 C.ar   21  TRP21       0.0001
     43  CE3      -11.3480    4.7280   -2.9100 C.ar   21  TRP21       0.0012
     44  CD2      -11.1270    3.5500   -2.1550 C.ar   21  TRP21       0.0152
     45  C        -10.3230    2.8760   -5.7330 C.2    21  TRP21       0.3845
     46  O        -11.0800    1.9620   -6.0950 O.co2  21  TRP21      -0.2437
     47  OXT      -10.4270    4.0430   -6.2080 O.co2  21  TRP21      -0.2437
@<TRIPOS>BOND
     1    47    45   ar
     2    46    45   ar
     3    28    27    1
     4    45    34    1
     5    30    29    1
     6    34    33    1
     7    34    35    1
     8    27    29    1
     9    27    26    1
    10    32    31    2
    11    33    31   am
    12    31    26    1
    13    35    36    1
    14    26    25    1
    15    43    42   ar
    16    43    44   ar
    17    36    44   ar
    18    36    37   ar
    19    42    41   ar
    20    25    23   am
    21    44    39   ar
    22    24    23    2
    23     6     4    1
    24    37    38   ar
    25    23    18    1
    26     8     7    2
    27     1     2    1
    28    41    40   ar
    29    39    38   ar
    30    39    40   ar
    31     2     7    1
    32     2     3    1
    33    20    19    1
    34     7     9   am
    35     4     3    1
    36     4     5    1
    37    19    18    1
    38    19    21    1
    39    18    17    1
    40    17    15   am
    41     9    10    1
    42    15    10    1
    43    15    16    2
    44    10    11    1
    45    21    22    1
    46    13    12   ar
    47    11    12    1
    48    12    14   ar
