@<TRIPOS>MOLECULE
../1EDN/3STEPMIN_17-21_NOBACKBONE.pdb
 26 23 0 0 0
SMALL
GASTEIGER

@<TRIPOS>ATOM
      1  CB        -6.9230   -0.4370    0.2770 C.3    17  LEU17       0.0000
      2  CG        -6.4950   -1.8450   -0.1910 C.3    17  LEU17       0.0000
      3  CD1       -6.5150   -2.8060    0.9980 C.3    17  LEU17       0.0000
      4  CD2       -7.4310   -2.4140   -1.2600 C.3    17  LEU17       0.0000
      5  CB        -9.0510    3.1310    2.7840 C.3    18  ASP18       0.1258
      6  CG       -10.5470    3.4340    2.8500 C.2    18  ASP18       0.3654
      7  OD1      -11.3300    2.4930    2.5610 O.co2  18  ASP18      -0.2456
      8  OD2      -10.9050    4.5930    3.1470 O.co2  18  ASP18      -0.2456
      9  CB        -4.3960    5.7260    0.0740 C.3    19  ILE19       0.0000
     10  CG2       -3.6150    6.9530   -0.4300 C.3    19  ILE19       0.0000
     11  CG1       -3.7730    5.2100    1.3920 C.3    19  ILE19       0.0000
     12  CD1       -3.8620    6.1700    2.5820 C.3    19  ILE19       0.0000
     13  CB        -6.0900    6.2460   -4.5940 C.3    20  ILE20       0.0000
     14  CG2       -6.7980    6.2490   -5.9680 C.3    20  ILE20       0.0000
     15  CG1       -5.7140    7.6970   -4.2070 C.3    20  ILE20       0.0000
     16  CD1       -4.7810    8.4150   -5.1910 C.3    20  ILE20       0.0000
     17  CB        -9.7020    1.6830   -3.5450 C.3    21  TRP21       0.0327
     18  CG       -10.4970    2.2370   -2.3850 C.ar   21  TRP21      -0.0013
     19  CD1      -10.6860    1.5470   -1.2340 C.ar   21  TRP21       0.0946
     20  NE1      -11.3350    2.3340   -0.3040 N.ar   21  TRP21      -0.2442
     21  CE2      -11.5720    3.5950   -0.7990 C.ar   21  TRP21       0.0810
     22  CZ2      -12.0950    4.7480   -0.2000 C.ar   21  TRP21       0.0191
     23  CH2      -12.2340    5.9130   -0.9670 C.ar   21  TRP21       0.0015
     24  CZ3      -11.8800    5.8920   -2.3260 C.ar   21  TRP21       0.0001
     25  CE3      -11.3480    4.7280   -2.9100 C.ar   21  TRP21       0.0012
     26  CD2      -11.1270    3.5500   -2.1550 C.ar   21  TRP21       0.0152
@<TRIPOS>BOND
     1    14    13    1
     2    16    15    1
     3    13    15    1
     4    17    18    1
     5    25    24   ar
     6    25    26   ar
     7    18    26   ar
     8    18    19   ar
     9    24    23   ar
    10    26    21   ar
    11     4     2    1
    12    19    20   ar
    13    23    22   ar
    14    21    20   ar
    15    21    22   ar
    16    10     9    1
    17     2     1    1
    18     2     3    1
    19     9    11    1
    20    11    12    1
    21     7     6   ar
    22     5     6    1
    23     6     8   ar
@<TRIPOS>MOLECULE
*****
 48 50 0 0 0
SMALL
GASTEIGER

@<TRIPOS>ATOM
      1 C          -9.6627    4.0245    1.9138 C.ar    1  LIG11      -0.0615
      2 C         -10.1801    2.9390    2.6108 C.ar    1  LIG11      -0.0617
      3 C         -11.0348    2.0516    1.9640 C.ar    1  LIG11      -0.0615
      4 C         -11.3755    2.2498    0.6211 C.ar    1  LIG11      -0.0576
      5 C         -10.8767    3.3458   -0.1054 C.ar    1  LIG11      -0.0332
      6 C         -10.0079    4.2248    0.5747 C.ar    1  LIG11      -0.0576
      7 C         -11.6774    5.8342   -2.9120 C.ar    1  LIG11      -0.0576
      8 C         -12.2618    7.0984   -3.0426 C.ar    1  LIG11      -0.0615
      9 C         -13.0651    7.6087   -2.0278 C.ar    1  LIG11      -0.0617
     10 C         -13.2935    6.8493   -0.8857 C.ar    1  LIG11      -0.0615
     11 C         -12.7136    5.5839   -0.7577 C.ar    1  LIG11      -0.0576
     12 N          -7.5280    5.8947   -3.1417 N.ar    1  LIG11      -0.2002
     13 C          -8.1461    4.7061   -3.2696 C.ar    1  LIG11       0.3190
     14 N          -8.0314    3.8918   -4.3260 N.ar    1  LIG11      -0.2002
     15 C          -7.1669    4.2610   -5.2861 C.ar    1  LIG11       0.0453
     16 C          -6.4779    5.4582   -5.2412 C.ar    1  LIG11      -0.0193
     17 C          -6.7004    6.2564   -4.1369 C.ar    1  LIG11       0.0453
     18 C          -6.0412    7.5931   -3.9978 C.3     1  LIG11      -0.0221
     19 C          -6.9646    3.3102   -6.4264 C.3     1  LIG11      -0.0221
     20 O          -8.9963    4.4025   -2.2392 O.3     1  LIG11      -0.4519
     21 C          -9.9899    3.3877   -2.5252 C.3     1  LIG11       0.1554
     22 C         -11.2471    3.6126   -1.5975 C.3     1  LIG11       0.0601
     23 C          -9.3870    1.9574   -2.4046 C.2     1  LIG11       0.0833
     24 O          -8.3669    1.8084   -1.6735 O.co2   1  LIG11      -0.5460
     25 O          -9.9995    1.0715   -3.0819 O.co2   1  LIG11      -0.5460
     26 C         -11.8701    5.0536   -1.7575 C.ar    1  LIG11      -0.0332
     27 C         -12.4011    2.6900   -2.0931 C.3     1  LIG11      -0.0477
     28 H          -8.9723    4.7089    2.3957 H       1  LIG11       0.0618
     29 H          -9.8982    2.7704    3.6448 H       1  LIG11       0.0618
     30 H         -11.4208    1.1853    2.4921 H       1  LIG11       0.0618
     31 H         -12.0179    1.5108    0.1528 H       1  LIG11       0.0621
     32 H          -9.5777    5.0765    0.0517 H       1  LIG11       0.0621
     33 H         -11.0649    5.4786   -3.7357 H       1  LIG11       0.0621
     34 H         -12.0809    7.6805   -3.9419 H       1  LIG11       0.0618
     35 H         -13.5111    8.5931   -2.1289 H       1  LIG11       0.0618
     36 H         -13.9209    7.2361   -0.0889 H       1  LIG11       0.0618
     37 H         -12.9194    5.0113    0.1439 H       1  LIG11       0.0621
     38 H          -5.7972    5.7480   -6.0296 H       1  LIG11       0.0653
     39 H          -5.3186    7.7767   -4.8000 H       1  LIG11       0.0293
     40 H          -6.7979    8.3839   -4.0308 H       1  LIG11       0.0293
     41 H          -5.5102    7.6516   -3.0418 H       1  LIG11       0.0293
     42 H          -7.5630    2.4040   -6.2907 H       1  LIG11       0.0293
     43 H          -7.2622    3.7798   -7.3684 H       1  LIG11       0.0293
     44 H          -5.9129    3.0157   -6.4886 H       1  LIG11       0.0293
     45 H         -10.3218    3.4918   -3.5681 H       1  LIG11       0.0810
     46 H         -12.1569    1.6261   -2.0263 H       1  LIG11       0.0243
     47 H         -13.3204    2.8381   -1.5114 H       1  LIG11       0.0243
     48 H         -12.6512    2.8964   -3.1416 H       1  LIG11       0.0243
@<TRIPOS>BOND
     1     1     2   ar
     2     2     3   ar
     3     3     4   ar
     4     4     5   ar
     5     5     6   ar
     6     5    22    1
     7     6     1   ar
     8     7     8   ar
     9     8     9   ar
    10     9    10   ar
    11    10    11   ar
    12    11    26   ar
    13    12    13   ar
    14    13    14   ar
    15    14    15   ar
    16    15    16   ar
    17    15    19    1
    18    16    17   ar
    19    17    12   ar
    20    17    18    1
    21    20    21    1
    22    20    13    1
    23    21    23    1
    24    21    22    1
    25    22    27    1
    26    22    26    1
    27    23    25   ar
    28    23    24   ar
    29    26     7   ar
    30     1    28    1
    31     2    29    1
    32     3    30    1
    33     4    31    1
    34     6    32    1
    35     7    33    1
    36     8    34    1
    37     9    35    1
    38    10    36    1
    39    11    37    1
    40    16    38    1
    41    18    39    1
    42    18    40    1
    43    18    41    1
    44    19    42    1
    45    19    43    1
    46    19    44    1
    47    21    45    1
    48    27    46    1
    49    27    47    1
    50    27    48    1
@<TRIPOS>MOLECULE
../1EDN/3STEPMIN_17-21.pdb
 47 48 0 0 0
SMALL
GASTEIGER

@<TRIPOS>ATOM
      1  N         -5.4290    0.8830   -1.1740 N.3    17  LEU17      -0.1231
      2  CA        -6.8230    0.6710   -0.7980 C.3    17  LEU17       0.1693
      3  CB        -6.9230   -0.4370    0.2770 C.3    17  LEU17       0.0284
      4  CG        -6.4950   -1.8450   -0.1910 C.3    17  LEU17       0.0019
      5  CD1       -6.5150   -2.8060    0.9980 C.3    17  LEU17       0.0001
      6  CD2       -7.4310   -2.4140   -1.2600 C.3    17  LEU17       0.0001
      7  C         -7.3990    2.0370   -0.3760 C.2    17  LEU17       0.2592
      8  O         -7.4670    2.9330   -1.2040 O.2    17  LEU17      -0.2718
      9  N         -7.7380    2.2560    0.8970 N.am   18  ASP18      -0.1960
     10  CA        -8.5130    3.4280    1.3730 C.3    18  ASP18       0.1840
     11  CB        -9.0510    3.1310    2.7840 C.3    18  ASP18       0.1450
     12  CG       -10.5470    3.4340    2.8500 C.2    18  ASP18       0.3671
     13  OD1      -11.3300    2.4930    2.5610 O.co2  18  ASP18      -0.2456
     14  OD2      -10.9050    4.5930    3.1470 O.co2  18  ASP18      -0.2456
     15  C         -7.8270    4.8120    1.2910 C.2    18  ASP18       0.2622
     16  O         -8.3890    5.8210    1.7350 O.2    18  ASP18      -0.2715
     17  N         -6.6250    4.8510    0.7010 N.am   19  ILE19      -0.1963
     18  CA        -5.9180    6.0210    0.1680 C.3    19  ILE19       0.1727
     19  CB        -4.3960    5.7260    0.0740 C.3    19  ILE19       0.0290
     20  CG2       -3.6150    6.9530   -0.4300 C.3    19  ILE19       0.0023
     21  CG1       -3.7730    5.2100    1.3920 C.3    19  ILE19       0.0022
     22  CD1       -3.8620    6.1700    2.5820 C.3    19  ILE19       0.0001
     23  C         -6.4970    6.4050   -1.2110 C.2    19  ILE19       0.2616
     24  O         -7.0070    7.5130   -1.3720 O.2    19  ILE19      -0.2715
     25  N         -6.3950    5.4980   -2.1940 N.am   20  ILE20      -0.1963
     26  CA        -6.9990    5.5490   -3.5400 C.3    20  ILE20       0.1727
     27  CB        -6.0900    6.2460   -4.5940 C.3    20  ILE20       0.0290
     28  CG2       -6.7980    6.2490   -5.9680 C.3    20  ILE20       0.0023
     29  CG1       -5.7140    7.6970   -4.2070 C.3    20  ILE20       0.0022
     30  CD1       -4.7810    8.4150   -5.1910 C.3    20  ILE20       0.0001
     31  C         -7.3180    4.1070   -3.9880 C.2    20  ILE20       0.2617
     32  O         -6.4020    3.3070   -4.2100 O.2    20  ILE20      -0.2715
     33  N         -8.6100    3.8210   -4.1620 N.am   21  TRP21      -0.1938
     34  CA        -9.2240    2.5950   -4.7020 C.3    21  TRP21       0.2021
     35  CB        -9.7020    1.6830   -3.5450 C.3    21  TRP21       0.0612
     36  CG       -10.4970    2.2370   -2.3850 C.ar   21  TRP21       0.0007
     37  CD1      -10.6860    1.5470   -1.2340 C.ar   21  TRP21       0.0946
     38  NE1      -11.3350    2.3340   -0.3040 N.ar   21  TRP21      -0.2442
     39  CE2      -11.5720    3.5950   -0.7990 C.ar   21  TRP21       0.0810
     40  CZ2      -12.0950    4.7480   -0.2000 C.ar   21  TRP21       0.0191
     41  CH2      -12.2340    5.9130   -0.9670 C.ar   21  TRP21       0.0015
     42  CZ3      -11.8800    5.8920   -2.3260 C.ar   21  TRP21       0.0001
     43  CE3      -11.3480    4.7280   -2.9100 C.ar   21  TRP21       0.0012
     44  CD2      -11.1270    3.5500   -2.1550 C.ar   21  TRP21       0.0152
     45  C        -10.3230    2.8760   -5.7330 C.2    21  TRP21       0.3845
     46  O        -11.0800    1.9620   -6.0950 O.co2  21  TRP21      -0.2437
     47  OXT      -10.4270    4.0430   -6.2080 O.co2  21  TRP21      -0.2437
@<TRIPOS>BOND
     1    47    45   ar
     2    46    45   ar
     3    28    27    1
     4    45    34    1
     5    30    29    1
     6    34    33    1
     7    34    35    1
     8    27    29    1
     9    27    26    1
    10    32    31    2
    11    33    31   am
    12    31    26    1
    13    35    36    1
    14    26    25    1
    15    43    42   ar
    16    43    44   ar
    17    36    44   ar
    18    36    37   ar
    19    42    41   ar
    20    25    23   am
    21    44    39   ar
    22    24    23    2
    23     6     4    1
    24    37    38   ar
    25    23    18    1
    26     8     7    2
    27     1     2    1
    28    41    40   ar
    29    39    38   ar
    30    39    40   ar
    31     2     7    1
    32     2     3    1
    33    20    19    1
    34     7     9   am
    35     4     3    1
    36     4     5    1
    37    19    18    1
    38    19    21    1
    39    18    17    1
    40    17    15   am
    41     9    10    1
    42    15    10    1
    43    15    16    2
    44    10    11    1
    45    21    22    1
    46    13    12   ar
    47    11    12    1
    48    12    14   ar
