@<TRIPOS>MOLECULE
../1EDN/PCA1_17-21_NOBACKBONE.pdb
 26 23 0 0 0
SMALL
GASTEIGER

@<TRIPOS>ATOM
      1  CB        -6.0770   -2.3450   -1.7480 C.3    17  LEU17       0.0000
      2  CG        -7.4170   -3.0590   -2.1890 C.3    17  LEU17       0.0000
      3  CD1       -7.4920   -3.1930   -3.7220 C.3    17  LEU17       0.0000
      4  CD2       -7.5340   -4.4610   -1.6100 C.3    17  LEU17       0.0000
      5  CB        -8.8290    0.4520    1.4200 C.3    18  ASP18       0.1258
      6  CG        -9.9140    1.2760    2.0640 C.2    18  ASP18       0.3654
      7  OD1      -10.8560    1.7240    1.3430 O.co2  18  ASP18      -0.2456
      8  OD2       -9.7710    1.5960    3.2830 O.co2  18  ASP18      -0.2456
      9  CB        -5.0730    3.3500    3.1520 C.3    19  ILE19       0.0000
     10  CG2       -4.5850    4.5470    3.9530 C.3    19  ILE19       0.0000
     11  CG1       -5.6210    2.1420    3.9730 C.3    19  ILE19       0.0000
     12  CD1       -6.7460    2.5740    4.8760 C.3    19  ILE19       0.0000
     13  CB        -2.8480    5.4620   -0.8180 C.3    20  ILE20       0.0000
     14  CG2       -2.5210    6.1670    0.5290 C.3    20  ILE20       0.0000
     15  CG1       -1.9270    4.2500   -0.9510 C.3    20  ILE20       0.0000
     16  CD1       -0.4520    4.4090   -1.0350 C.3    20  ILE20       0.0000
     17  CB        -7.1930    6.0870   -4.6010 C.3    21  TRP21       0.0066
     18  CG        -8.1480    4.9210   -4.3560 C.3    21  TRP21       0.0452
     19  CD1       -8.4270    4.3170   -3.1580 C.3    21  TRP21       0.1165
     20  NE1       -9.4680    3.4340   -3.3480 N.pl3  21  TRP21      -0.2376
     21  CE2      -10.0400    3.5420   -4.5600 C.ar   21  TRP21       0.0614
     22  CZ2      -11.2420    2.9770   -5.0990 C.ar   21  TRP21       0.0158
     23  CH2      -11.3060    3.0240   -6.5170 C.ar   21  TRP21       0.0013
     24  CZ3      -10.3640    3.7270   -7.2650 C.ar   21  TRP21      -0.0002
     25  CE3       -9.2810    4.3830   -6.7050 C.ar   21  TRP21      -0.0030
     26  CD2       -9.0950    4.3440   -5.3390 C.ar   21  TRP21      -0.0059
@<TRIPOS>BOND
     1    24    25   ar
     2    24    23   ar
     3    25    26   ar
     4    23    22   ar
     5    26    21   ar
     6    26    18    1
     7    22    21   ar
     8    17    18    1
     9    21    20    1
    10    18    19    1
    11     3     2    1
    12    20    19    1
    13     2     1    1
    14     2     4    1
    15    16    15    1
    16    15    13    1
    17    13    14    1
    18     7     6   ar
    19     5     6    1
    20     6     8   ar
    21     9    10    1
    22     9    11    1
    23    11    12    1
@<TRIPOS>MOLECULE
9871593
 62 65 0 0 0
SMALL
GASTEIGER

@<TRIPOS>ATOM
      1 O         -10.6797    2.3894   -5.0664 O.3     1  LIG11      -0.4526
      2 O         -10.7534    4.3940   -6.4092 O.3     1  LIG11      -0.4526
      3 O          -8.1054   -0.8443    1.4930 O.3     1  LIG11      -0.4913
      4 O         -11.7987    1.9403    2.7482 O.3     1  LIG11      -0.4913
      5 O         -10.2948   -0.5222    2.9587 O.3     1  LIG11      -0.4885
      6 O          -5.2847    2.3528   -0.7114 O.2     1  LIG11      -0.2870
      7 O          -4.8668    5.2162   -2.1240 O.co2   1  LIG11      -0.5446
      8 O          -5.0787    3.7876   -3.9045 O.co2   1  LIG11      -0.5446
      9 O          -5.1305    4.0199    5.2968 O.3     1  LIG11      -0.4951
     10 C          -8.5574    3.7069   -0.4759 C.3     1  LIG11       0.0021
     11 C          -7.1640    3.7336   -1.0585 C.2     1  LIG11       0.0135
     12 C          -8.9920    2.5688    0.4237 C.ar    1  LIG11      -0.0358
     13 C          -6.8986    4.0258   -2.3578 C.2     1  LIG11       0.0117
     14 C          -7.9072    4.1802   -3.4284 C.ar    1  LIG11      -0.0121
     15 C          -5.9863    3.2594   -0.2499 C.2     1  LIG11       0.1901
     16 C         -10.1380    2.7607    1.2148 C.ar    1  LIG11      -0.0126
     17 C          -8.3655    1.3236    0.4655 C.ar    1  LIG11      -0.0126
     18 C          -8.8010    3.1273   -3.6991 C.ar    1  LIG11      -0.0084
     19 C          -9.7283    3.2925   -4.7057 C.ar    1  LIG11       0.1668
     20 C          -7.9585    5.3457   -4.2243 C.ar    1  LIG11      -0.0503
     21 C          -9.7732    4.4364   -5.4660 C.ar    1  LIG11       0.1663
     22 C          -8.7887    0.3453    1.3741 C.ar    1  LIG11       0.1654
     23 C         -10.6396    1.7440    2.0385 C.ar    1  LIG11       0.1654
     24 C          -5.7563    3.6302    1.1786 C.ar    1  LIG11       0.0222
     25 C          -9.9342    0.5392    2.1646 C.ar    1  LIG11       0.2035
     26 C          -8.8958    5.4776   -5.2579 C.ar    1  LIG11      -0.0156
     27 C          -5.4491    4.3355   -2.8254 C.2     1  LIG11       0.0726
     28 C         -11.3098    3.0873   -6.1569 C.3     1  LIG11       0.2332
     29 C          -6.4669    4.6056    1.8800 C.ar    1  LIG11      -0.0475
     30 C          -4.7806    2.8901    1.8728 C.ar    1  LIG11      -0.0475
     31 C          -6.2880    4.7563    3.2663 C.ar    1  LIG11      -0.0193
     32 C          -4.5798    3.0605    3.2422 C.ar    1  LIG11      -0.0193
     33 C          -5.3677    3.9612    3.9514 C.ar    1  LIG11       0.1201
     34 C          -6.7124   -0.6362    1.7367 C.3     1  LIG11       0.0790
     35 C         -12.8766    2.4133    1.9410 C.3     1  LIG11       0.0790
     36 C         -10.9103   -0.2026    4.1979 C.3     1  LIG11       0.0791
     37 C          -6.2926    4.2340    6.0901 C.3     1  LIG11       0.0788
     38 H          -8.6901    4.6460    0.0783 H       1  LIG11       0.0363
     39 H          -9.3195    3.7609   -1.2601 H       1  LIG11       0.0363
     40 H         -10.6486    3.7195    1.1707 H       1  LIG11       0.0658
     41 H          -7.5336    1.1039   -0.1994 H       1  LIG11       0.0658
     42 H          -8.7598    2.1996   -3.1383 H       1  LIG11       0.0661
     43 H          -7.2361    6.1435   -4.0549 H       1  LIG11       0.0625
     44 H          -8.9139    6.3631   -5.8815 H       1  LIG11       0.0655
     45 H         -11.2127    2.4805   -7.0645 H       1  LIG11       0.1166
     46 H         -12.3757    3.2024   -5.9276 H       1  LIG11       0.1166
     47 H          -7.1615    5.2653    1.3745 H       1  LIG11       0.0626
     48 H          -4.1734    2.1589    1.3413 H       1  LIG11       0.0626
     49 H          -6.8667    5.5125    3.7848 H       1  LIG11       0.0654
     50 H          -3.8268    2.4688    3.7538 H       1  LIG11       0.0654
     51 H          -6.3044   -1.5631    2.1505 H       1  LIG11       0.0660
     52 H          -6.1791   -0.4232    0.8049 H       1  LIG11       0.0660
     53 H          -6.5414    0.1598    2.4714 H       1  LIG11       0.0660
     54 H         -13.8110    2.1596    2.4509 H       1  LIG11       0.0660
     55 H         -12.8339    3.5029    1.8468 H       1  LIG11       0.0660
     56 H         -12.8946    1.9393    0.9527 H       1  LIG11       0.0660
     57 H         -10.7319   -1.0392    4.8807 H       1  LIG11       0.0660
     58 H         -10.4845    0.6942    4.6614 H       1  LIG11       0.0660
     59 H         -11.9936   -0.1132    4.0734 H       1  LIG11       0.0660
     60 H          -6.0476    3.9569    7.1204 H       1  LIG11       0.0660
     61 H          -6.5743    5.2910    6.0858 H       1  LIG11       0.0660
     62 H          -7.1291    3.6033    5.7674 H       1  LIG11       0.0660
@<TRIPOS>BOND
     1     1    19    1
     2     1    28    1
     3     2    28    1
     4     2    21    1
     5     3    22    1
     6     3    34    1
     7     4    23    1
     8     4    35    1
     9     5    25    1
    10     5    36    1
    11     6    15    2
    12     7    27   ar
    13     8    27   ar
    14     9    33    1
    15     9    37    1
    16    10    11    1
    17    10    12    1
    18    11    13    2
    19    11    15    1
    20    12    16   ar
    21    12    17   ar
    22    13    14    1
    23    13    27    1
    24    14    20   ar
    25    14    18   ar
    26    15    24    1
    27    16    23   ar
    28    17    22   ar
    29    18    19   ar
    30    19    21   ar
    31    20    26   ar
    32    21    26   ar
    33    22    25   ar
    34    23    25   ar
    35    24    29   ar
    36    24    30   ar
    37    29    31   ar
    38    30    32   ar
    39    31    33   ar
    40    32    33   ar
    41    10    38    1
    42    10    39    1
    43    16    40    1
    44    17    41    1
    45    18    42    1
    46    20    43    1
    47    26    44    1
    48    28    45    1
    49    28    46    1
    50    29    47    1
    51    30    48    1
    52    31    49    1
    53    32    50    1
    54    34    51    1
    55    34    52    1
    56    34    53    1
    57    35    54    1
    58    35    55    1
    59    35    56    1
    60    36    57    1
    61    36    58    1
    62    36    59    1
    63    37    60    1
    64    37    61    1
    65    37    62    1
@<TRIPOS>MOLECULE
../1EDN/PCA1_17-21.pdb
 47 48 0 0 0
SMALL
GASTEIGER

@<TRIPOS>ATOM
      1  N         -4.6470   -0.3680   -1.6750 N.3    17  LEU17      -0.1231
      2  CA        -5.8920   -0.8550   -2.2480 C.3    17  LEU17       0.1693
      3  CB        -6.0770   -2.3450   -1.7480 C.3    17  LEU17       0.0284
      4  CG        -7.4170   -3.0590   -2.1890 C.3    17  LEU17       0.0019
      5  CD1       -7.4920   -3.1930   -3.7220 C.3    17  LEU17       0.0001
      6  CD2       -7.5340   -4.4610   -1.6100 C.3    17  LEU17       0.0001
      7  C         -7.0080    0.1010   -1.8270 C.2    17  LEU17       0.2592
      8  O         -7.6220    0.6590   -2.7680 O.2    17  LEU17      -0.2718
      9  N         -7.2890    0.1920   -0.5460 N.am   18  ASP18      -0.1960
     10  CA        -8.2730    1.1070    0.1120 C.3    18  ASP18       0.1840
     11  CB        -8.8290    0.4520    1.4200 C.3    18  ASP18       0.1450
     12  CG        -9.9140    1.2760    2.0640 C.2    18  ASP18       0.3671
     13  OD1      -10.8560    1.7240    1.3430 O.co2  18  ASP18      -0.2456
     14  OD2       -9.7710    1.5960    3.2830 O.co2  18  ASP18      -0.2456
     15  C         -7.6270    2.4530    0.4740 C.2    18  ASP18       0.2622
     16  O         -8.0770    3.4620   -0.0480 O.2    18  ASP18      -0.2715
     17  N         -6.6010    2.4770    1.3340 N.am   19  ILE19      -0.1963
     18  CA        -6.1660    3.6270    2.0790 C.3    19  ILE19       0.1727
     19  CB        -5.0730    3.3500    3.1520 C.3    19  ILE19       0.0290
     20  CG2       -4.5850    4.5470    3.9530 C.3    19  ILE19       0.0023
     21  CG1       -5.6210    2.1420    3.9730 C.3    19  ILE19       0.0022
     22  CD1       -6.7460    2.5740    4.8760 C.3    19  ILE19       0.0001
     23  C         -5.6740    4.7260    1.1170 C.2    19  ILE19       0.2616
     24  O         -5.9640    5.8590    1.4260 O.2    19  ILE19      -0.2715
     25  N         -4.8940    4.3400    0.1060 N.am   20  ILE20      -0.1963
     26  CA        -4.3700    5.1770   -0.9560 C.3    20  ILE20       0.1727
     27  CB        -2.8480    5.4620   -0.8180 C.3    20  ILE20       0.0290
     28  CG2       -2.5210    6.1670    0.5290 C.3    20  ILE20       0.0023
     29  CG1       -1.9270    4.2500   -0.9510 C.3    20  ILE20       0.0022
     30  CD1       -0.4520    4.4090   -1.0350 C.3    20  ILE20       0.0001
     31  C         -4.8260    4.7960   -2.3980 C.2    20  ILE20       0.2617
     32  O         -4.8210    3.6210   -2.7490 O.2    20  ILE20      -0.2715
     33  N         -5.1950    5.7710   -3.1960 N.am   21  TRP21      -0.1941
     34  CA        -5.6960    5.8160   -4.5740 C.3    21  TRP21       0.1982
     35  CB        -7.1930    6.0870   -4.6010 C.3    21  TRP21       0.0394
     36  CG        -8.1480    4.9210   -4.3560 C.3    21  TRP21       0.0475
     37  CD1       -8.4270    4.3170   -3.1580 C.3    21  TRP21       0.1166
     38  NE1       -9.4680    3.4340   -3.3480 N.pl3  21  TRP21      -0.2376
     39  CE2      -10.0400    3.5420   -4.5600 C.ar   21  TRP21       0.0614
     40  CZ2      -11.2420    2.9770   -5.0990 C.ar   21  TRP21       0.0158
     41  CH2      -11.3060    3.0240   -6.5170 C.ar   21  TRP21       0.0013
     42  CZ3      -10.3640    3.7270   -7.2650 C.ar   21  TRP21      -0.0002
     43  CE3       -9.2810    4.3830   -6.7050 C.ar   21  TRP21      -0.0030
     44  CD2       -9.0950    4.3440   -5.3390 C.ar   21  TRP21      -0.0059
     45  C         -4.8510    6.8160   -5.3910 C.2    21  TRP21       0.3842
     46  O         -5.0400    8.0490   -5.1500 O.co2  21  TRP21      -0.2437
     47  OXT       -3.9720    6.3760   -6.1010 O.co2  21  TRP21      -0.2437
@<TRIPOS>BOND
     1    42    43   ar
     2    42    41   ar
     3    43    44   ar
     4    41    40   ar
     5    47    45   ar
     6    45    46   ar
     7    45    34    1
     8    44    39   ar
     9    44    36    1
    10    40    39   ar
    11    35    34    1
    12    35    36    1
    13    34    33    1
    14    39    38    1
    15    36    37    1
    16     5     4    1
    17    38    37    1
    18    33    31   am
    19     8     7    2
    20    32    31    2
    21    31    26    1
    22     2     7    1
    23     2     3    1
    24     2     1    1
    25     4     3    1
    26     4     6    1
    27     7     9   am
    28    30    29    1
    29    26    27    1
    30    26    25    1
    31    29    27    1
    32    27    28    1
    33     9    10    1
    34    16    15    2
    35    25    23   am
    36    10    15    1
    37    10    11    1
    38    15    17   am
    39    23    24    2
    40    23    18    1
    41    17    18    1
    42    13    12   ar
    43    11    12    1
    44    12    14   ar
    45    18    19    1
    46    19    20    1
    47    19    21    1
    48    21    22    1
