@<TRIPOS>MOLECULE
../1EDN/PCA1_17-21_NOBACKBONE.pdb
 26 23 0 0 0
SMALL
GASTEIGER

@<TRIPOS>ATOM
      1  CB        -6.0770   -2.3450   -1.7480 C.3    17  LEU17       0.0000
      2  CG        -7.4170   -3.0590   -2.1890 C.3    17  LEU17       0.0000
      3  CD1       -7.4920   -3.1930   -3.7220 C.3    17  LEU17       0.0000
      4  CD2       -7.5340   -4.4610   -1.6100 C.3    17  LEU17       0.0000
      5  CB        -8.8290    0.4520    1.4200 C.3    18  ASP18       0.1258
      6  CG        -9.9140    1.2760    2.0640 C.2    18  ASP18       0.3654
      7  OD1      -10.8560    1.7240    1.3430 O.co2  18  ASP18      -0.2456
      8  OD2       -9.7710    1.5960    3.2830 O.co2  18  ASP18      -0.2456
      9  CB        -5.0730    3.3500    3.1520 C.3    19  ILE19       0.0000
     10  CG2       -4.5850    4.5470    3.9530 C.3    19  ILE19       0.0000
     11  CG1       -5.6210    2.1420    3.9730 C.3    19  ILE19       0.0000
     12  CD1       -6.7460    2.5740    4.8760 C.3    19  ILE19       0.0000
     13  CB        -2.8480    5.4620   -0.8180 C.3    20  ILE20       0.0000
     14  CG2       -2.5210    6.1670    0.5290 C.3    20  ILE20       0.0000
     15  CG1       -1.9270    4.2500   -0.9510 C.3    20  ILE20       0.0000
     16  CD1       -0.4520    4.4090   -1.0350 C.3    20  ILE20       0.0000
     17  CB        -7.1930    6.0870   -4.6010 C.3    21  TRP21       0.0066
     18  CG        -8.1480    4.9210   -4.3560 C.3    21  TRP21       0.0452
     19  CD1       -8.4270    4.3170   -3.1580 C.3    21  TRP21       0.1165
     20  NE1       -9.4680    3.4340   -3.3480 N.pl3  21  TRP21      -0.2376
     21  CE2      -10.0400    3.5420   -4.5600 C.ar   21  TRP21       0.0614
     22  CZ2      -11.2420    2.9770   -5.0990 C.ar   21  TRP21       0.0158
     23  CH2      -11.3060    3.0240   -6.5170 C.ar   21  TRP21       0.0013
     24  CZ3      -10.3640    3.7270   -7.2650 C.ar   21  TRP21      -0.0002
     25  CE3       -9.2810    4.3830   -6.7050 C.ar   21  TRP21      -0.0030
     26  CD2       -9.0950    4.3440   -5.3390 C.ar   21  TRP21      -0.0059
@<TRIPOS>BOND
     1    24    25   ar
     2    24    23   ar
     3    25    26   ar
     4    23    22   ar
     5    26    21   ar
     6    26    18    1
     7    22    21   ar
     8    17    18    1
     9    21    20    1
    10    18    19    1
    11     3     2    1
    12    20    19    1
    13     2     1    1
    14     2     4    1
    15    16    15    1
    16    15    13    1
    17    13    14    1
    18     7     6   ar
    19     5     6    1
    20     6     8   ar
    21     9    10    1
    22     9    11    1
    23    11    12    1
@<TRIPOS>MOLECULE
01178588C
 55 57 0 0 0
SMALL
GASTEIGER

@<TRIPOS>ATOM
      1 S          -5.0998    3.3959    0.4732 S.O2    1  LIG11       0.0756
      2 C          -4.0722    4.3762   -0.5779 C.ar    1  LIG11       0.1344
      3 N          -4.1049    3.0540    1.8193 N.pl3   1  LIG11      -0.1951
      4 O          -5.2589    2.0996   -0.1510 O.2     1  LIG11      -0.1499
      5 O          -6.2107    4.2181    0.8921 O.2     1  LIG11      -0.1499
      6 C          -4.5430    4.8741   -1.7942 C.ar    1  LIG11       0.0975
      7 C          -2.7774    4.7214   -0.1549 C.ar    1  LIG11      -0.0315
      8 C          -4.8573    2.9662    3.0218 C.ar    1  LIG11       0.2006
      9 C          -5.8722    4.6567   -2.4069 C.ar    1  LIG11       0.0023
     10 N          -3.7508    5.6841   -2.5639 N.ar    1  LIG11      -0.2530
     11 C          -1.9816    5.5371   -0.9498 C.ar    1  LIG11      -0.0417
     12 C          -5.2629    4.0682    3.7829 C.ar    1  LIG11       0.2574
     13 N          -5.1957    1.6962    3.3205 N.ar    1  LIG11      -0.2325
     14 C          -6.4009    3.3823   -2.6504 C.ar    1  LIG11      -0.0523
     15 C          -6.6227    5.7561   -2.8673 C.ar    1  LIG11      -0.0523
     16 C          -2.5093    5.9915   -2.1386 C.ar    1  LIG11       0.0284
     17 N          -6.0331    3.9230    4.8904 N.ar    1  LIG11      -0.2137
     18 O          -4.7858    5.3175    3.4369 O.3     1  LIG11      -0.4773
     19 C          -6.0003    1.5697    4.4012 C.ar    1  LIG11       0.0510
     20 C          -7.6463    3.2120   -3.2677 C.ar    1  LIG11      -0.0579
     21 C          -7.8492    5.5887   -3.5245 C.ar    1  LIG11      -0.0579
     22 C          -6.4174    2.6527    5.1757 C.ar    1  LIG11       0.0602
     23 C          -5.4681    6.3698    4.1078 C.3     1  LIG11       0.0805
     24 C          -8.3749    4.3108   -3.7290 C.ar    1  LIG11      -0.0465
     25 C          -7.3306    2.4412    6.3421 C.3     1  LIG11      -0.0208
     26 C          -9.6971    4.1178   -4.4476 C.3     1  LIG11      -0.0174
     27 C          -9.6076    3.6983   -5.9340 C.3     1  LIG11       0.0085
     28 C         -11.1086    3.6257   -6.3384 C.2     1  LIG11       0.0477
     29 C          -8.8645    4.7309   -6.7886 C.3     1  LIG11      -0.0544
     30 C          -8.9711    2.3180   -6.1379 C.3     1  LIG11      -0.0544
     31 O         -11.5919    4.6718   -6.8604 O.co2   1  LIG11      -0.5493
     32 O         -11.6981    2.5382   -6.0751 O.co2   1  LIG11      -0.5493
     33 H          -3.7663    2.1031    1.6517 H       1  LIG11       0.1754
     34 H          -2.3766    4.3804    0.7948 H       1  LIG11       0.0638
     35 H          -0.9808    5.8189   -0.6433 H       1  LIG11       0.0633
     36 H          -5.8451    2.4844   -2.3979 H       1  LIG11       0.0624
     37 H          -6.2348    6.7652   -2.7420 H       1  LIG11       0.0624
     38 H          -1.9409    6.6368   -2.8016 H       1  LIG11       0.0830
     39 H          -6.3152    0.5559    4.6295 H       1  LIG11       0.0848
     40 H          -8.0334    2.2059   -3.4128 H       1  LIG11       0.0620
     41 H          -8.3854    6.4622   -3.8889 H       1  LIG11       0.0620
     42 H          -5.0822    7.3173    3.7195 H       1  LIG11       0.0660
     43 H          -5.2678    6.3484    5.1849 H       1  LIG11       0.0660
     44 H          -6.5446    6.3394    3.9070 H       1  LIG11       0.0660
     45 H          -7.4820    3.3754    6.8920 H       1  LIG11       0.0293
     46 H          -6.9043    1.7061    7.0318 H       1  LIG11       0.0293
     47 H          -8.3057    2.0852    5.9956 H       1  LIG11       0.0293
     48 H         -10.2724    5.0515   -4.3602 H       1  LIG11       0.0322
     49 H         -10.2796    3.3813   -3.8756 H       1  LIG11       0.0322
     50 H          -7.7928    4.7441   -6.5616 H       1  LIG11       0.0239
     51 H          -9.2476    5.7451   -6.6294 H       1  LIG11       0.0239
     52 H          -8.9703    4.5038   -7.8562 H       1  LIG11       0.0239
     53 H          -7.8862    2.3485   -5.9902 H       1  LIG11       0.0239
     54 H          -9.1480    1.9494   -7.1552 H       1  LIG11       0.0239
     55 H          -9.3792    1.5730   -5.4454 H       1  LIG11       0.0239
@<TRIPOS>BOND
     1     1     5    2
     2     1     4    2
     3     1     3    1
     4     1     2    1
     5     2     6   ar
     6     2     7   ar
     7     3     8    1
     8     6    10   ar
     9     6     9    1
    10     7    11   ar
    11     8    12   ar
    12     8    13   ar
    13     9    14   ar
    14     9    15   ar
    15    10    16   ar
    16    11    16   ar
    17    12    17   ar
    18    12    18    1
    19    13    19   ar
    20    14    20   ar
    21    15    21   ar
    22    17    22   ar
    23    18    23    1
    24    19    22   ar
    25    20    24   ar
    26    21    24   ar
    27    22    25    1
    28    24    26    1
    29    26    27    1
    30    27    30    1
    31    27    29    1
    32    27    28    1
    33    28    32   ar
    34    28    31   ar
    35     3    33    1
    36     7    34    1
    37    11    35    1
    38    14    36    1
    39    15    37    1
    40    16    38    1
    41    19    39    1
    42    20    40    1
    43    21    41    1
    44    23    42    1
    45    23    43    1
    46    23    44    1
    47    25    45    1
    48    25    46    1
    49    25    47    1
    50    26    48    1
    51    26    49    1
    52    29    50    1
    53    29    51    1
    54    29    52    1
    55    30    53    1
    56    30    54    1
    57    30    55    1
@<TRIPOS>MOLECULE
../1EDN/PCA1_17-21.pdb
 47 48 0 0 0
SMALL
GASTEIGER

@<TRIPOS>ATOM
      1  N         -4.6470   -0.3680   -1.6750 N.3    17  LEU17      -0.1231
      2  CA        -5.8920   -0.8550   -2.2480 C.3    17  LEU17       0.1693
      3  CB        -6.0770   -2.3450   -1.7480 C.3    17  LEU17       0.0284
      4  CG        -7.4170   -3.0590   -2.1890 C.3    17  LEU17       0.0019
      5  CD1       -7.4920   -3.1930   -3.7220 C.3    17  LEU17       0.0001
      6  CD2       -7.5340   -4.4610   -1.6100 C.3    17  LEU17       0.0001
      7  C         -7.0080    0.1010   -1.8270 C.2    17  LEU17       0.2592
      8  O         -7.6220    0.6590   -2.7680 O.2    17  LEU17      -0.2718
      9  N         -7.2890    0.1920   -0.5460 N.am   18  ASP18      -0.1960
     10  CA        -8.2730    1.1070    0.1120 C.3    18  ASP18       0.1840
     11  CB        -8.8290    0.4520    1.4200 C.3    18  ASP18       0.1450
     12  CG        -9.9140    1.2760    2.0640 C.2    18  ASP18       0.3671
     13  OD1      -10.8560    1.7240    1.3430 O.co2  18  ASP18      -0.2456
     14  OD2       -9.7710    1.5960    3.2830 O.co2  18  ASP18      -0.2456
     15  C         -7.6270    2.4530    0.4740 C.2    18  ASP18       0.2622
     16  O         -8.0770    3.4620   -0.0480 O.2    18  ASP18      -0.2715
     17  N         -6.6010    2.4770    1.3340 N.am   19  ILE19      -0.1963
     18  CA        -6.1660    3.6270    2.0790 C.3    19  ILE19       0.1727
     19  CB        -5.0730    3.3500    3.1520 C.3    19  ILE19       0.0290
     20  CG2       -4.5850    4.5470    3.9530 C.3    19  ILE19       0.0023
     21  CG1       -5.6210    2.1420    3.9730 C.3    19  ILE19       0.0022
     22  CD1       -6.7460    2.5740    4.8760 C.3    19  ILE19       0.0001
     23  C         -5.6740    4.7260    1.1170 C.2    19  ILE19       0.2616
     24  O         -5.9640    5.8590    1.4260 O.2    19  ILE19      -0.2715
     25  N         -4.8940    4.3400    0.1060 N.am   20  ILE20      -0.1963
     26  CA        -4.3700    5.1770   -0.9560 C.3    20  ILE20       0.1727
     27  CB        -2.8480    5.4620   -0.8180 C.3    20  ILE20       0.0290
     28  CG2       -2.5210    6.1670    0.5290 C.3    20  ILE20       0.0023
     29  CG1       -1.9270    4.2500   -0.9510 C.3    20  ILE20       0.0022
     30  CD1       -0.4520    4.4090   -1.0350 C.3    20  ILE20       0.0001
     31  C         -4.8260    4.7960   -2.3980 C.2    20  ILE20       0.2617
     32  O         -4.8210    3.6210   -2.7490 O.2    20  ILE20      -0.2715
     33  N         -5.1950    5.7710   -3.1960 N.am   21  TRP21      -0.1941
     34  CA        -5.6960    5.8160   -4.5740 C.3    21  TRP21       0.1982
     35  CB        -7.1930    6.0870   -4.6010 C.3    21  TRP21       0.0394
     36  CG        -8.1480    4.9210   -4.3560 C.3    21  TRP21       0.0475
     37  CD1       -8.4270    4.3170   -3.1580 C.3    21  TRP21       0.1166
     38  NE1       -9.4680    3.4340   -3.3480 N.pl3  21  TRP21      -0.2376
     39  CE2      -10.0400    3.5420   -4.5600 C.ar   21  TRP21       0.0614
     40  CZ2      -11.2420    2.9770   -5.0990 C.ar   21  TRP21       0.0158
     41  CH2      -11.3060    3.0240   -6.5170 C.ar   21  TRP21       0.0013
     42  CZ3      -10.3640    3.7270   -7.2650 C.ar   21  TRP21      -0.0002
     43  CE3       -9.2810    4.3830   -6.7050 C.ar   21  TRP21      -0.0030
     44  CD2       -9.0950    4.3440   -5.3390 C.ar   21  TRP21      -0.0059
     45  C         -4.8510    6.8160   -5.3910 C.2    21  TRP21       0.3842
     46  O         -5.0400    8.0490   -5.1500 O.co2  21  TRP21      -0.2437
     47  OXT       -3.9720    6.3760   -6.1010 O.co2  21  TRP21      -0.2437
@<TRIPOS>BOND
     1    42    43   ar
     2    42    41   ar
     3    43    44   ar
     4    41    40   ar
     5    47    45   ar
     6    45    46   ar
     7    45    34    1
     8    44    39   ar
     9    44    36    1
    10    40    39   ar
    11    35    34    1
    12    35    36    1
    13    34    33    1
    14    39    38    1
    15    36    37    1
    16     5     4    1
    17    38    37    1
    18    33    31   am
    19     8     7    2
    20    32    31    2
    21    31    26    1
    22     2     7    1
    23     2     3    1
    24     2     1    1
    25     4     3    1
    26     4     6    1
    27     7     9   am
    28    30    29    1
    29    26    27    1
    30    26    25    1
    31    29    27    1
    32    27    28    1
    33     9    10    1
    34    16    15    2
    35    25    23   am
    36    10    15    1
    37    10    11    1
    38    15    17   am
    39    23    24    2
    40    23    18    1
    41    17    18    1
    42    13    12   ar
    43    11    12    1
    44    12    14   ar
    45    18    19    1
    46    19    20    1
    47    19    21    1
    48    21    22    1
