@<TRIPOS>MOLECULE
../1EDN/PCA1_17-21_NOBACKBONE.pdb
 26 23 0 0 0
SMALL
GASTEIGER

@<TRIPOS>ATOM
      1  CB        -6.0770   -2.3450   -1.7480 C.3    17  LEU17       0.0000
      2  CG        -7.4170   -3.0590   -2.1890 C.3    17  LEU17       0.0000
      3  CD1       -7.4920   -3.1930   -3.7220 C.3    17  LEU17       0.0000
      4  CD2       -7.5340   -4.4610   -1.6100 C.3    17  LEU17       0.0000
      5  CB        -8.8290    0.4520    1.4200 C.3    18  ASP18       0.1258
      6  CG        -9.9140    1.2760    2.0640 C.2    18  ASP18       0.3654
      7  OD1      -10.8560    1.7240    1.3430 O.co2  18  ASP18      -0.2456
      8  OD2       -9.7710    1.5960    3.2830 O.co2  18  ASP18      -0.2456
      9  CB        -5.0730    3.3500    3.1520 C.3    19  ILE19       0.0000
     10  CG2       -4.5850    4.5470    3.9530 C.3    19  ILE19       0.0000
     11  CG1       -5.6210    2.1420    3.9730 C.3    19  ILE19       0.0000
     12  CD1       -6.7460    2.5740    4.8760 C.3    19  ILE19       0.0000
     13  CB        -2.8480    5.4620   -0.8180 C.3    20  ILE20       0.0000
     14  CG2       -2.5210    6.1670    0.5290 C.3    20  ILE20       0.0000
     15  CG1       -1.9270    4.2500   -0.9510 C.3    20  ILE20       0.0000
     16  CD1       -0.4520    4.4090   -1.0350 C.3    20  ILE20       0.0000
     17  CB        -7.1930    6.0870   -4.6010 C.3    21  TRP21       0.0066
     18  CG        -8.1480    4.9210   -4.3560 C.3    21  TRP21       0.0452
     19  CD1       -8.4270    4.3170   -3.1580 C.3    21  TRP21       0.1165
     20  NE1       -9.4680    3.4340   -3.3480 N.pl3  21  TRP21      -0.2376
     21  CE2      -10.0400    3.5420   -4.5600 C.ar   21  TRP21       0.0614
     22  CZ2      -11.2420    2.9770   -5.0990 C.ar   21  TRP21       0.0158
     23  CH2      -11.3060    3.0240   -6.5170 C.ar   21  TRP21       0.0013
     24  CZ3      -10.3640    3.7270   -7.2650 C.ar   21  TRP21      -0.0002
     25  CE3       -9.2810    4.3830   -6.7050 C.ar   21  TRP21      -0.0030
     26  CD2       -9.0950    4.3440   -5.3390 C.ar   21  TRP21      -0.0059
@<TRIPOS>BOND
     1    24    25   ar
     2    24    23   ar
     3    25    26   ar
     4    23    22   ar
     5    26    21   ar
     6    26    18    1
     7    22    21   ar
     8    17    18    1
     9    21    20    1
    10    18    19    1
    11     3     2    1
    12    20    19    1
    13     2     1    1
    14     2     4    1
    15    16    15    1
    16    15    13    1
    17    13    14    1
    18     7     6   ar
    19     5     6    1
    20     6     8   ar
    21     9    10    1
    22     9    11    1
    23    11    12    1
@<TRIPOS>MOLECULE
156690
 70 73 0 0 0
SMALL
GASTEIGER

@<TRIPOS>ATOM
      1 S          -9.1627    4.2414   -1.3118 S.O2    1  LIG11       0.0741
      2 O          -4.1704    2.3869    4.1844 O.2     1  LIG11      -0.2756
      3 O          -8.0118    5.0857   -1.1320 O.2     1  LIG11      -0.1499
      4 O         -10.4973    4.8011   -1.3750 O.2     1  LIG11      -0.1499
      5 O          -2.0342    5.0142    0.5277 O.2     1  LIG11      -0.4436
      6 O          -8.8571    4.6987   -5.8096 O.2     1  LIG11      -0.3578
      7 N          -5.6195    4.1188    3.7978 N.am    1  LIG11      -0.3002
      8 N          -8.9952    3.2043   -2.6420 N.pl3   1  LIG11      -0.1965
      9 N          -2.0235    4.4030   -1.6459 N.ar    1  LIG11      -0.2175
     10 N          -8.3719    4.5425   -4.5241 N.ar    1  LIG11      -0.0614
     11 C          -3.4902    3.9542    6.7467 C.3     1  LIG11      -0.0295
     12 C          -3.6044    4.4317    5.2765 C.3     1  LIG11       0.0290
     13 C          -4.8678    3.6254    7.3448 C.3     1  LIG11      -0.0596
     14 C          -2.8563    5.0886    7.5768 C.3     1  LIG11      -0.0596
     15 C          -2.5774    2.7191    6.8565 C.3     1  LIG11      -0.0596
     16 C          -4.4918    3.5605    4.3907 C.2     1  LIG11       0.2161
     17 C          -6.3459    3.3131    2.8096 C.3     1  LIG11       0.0400
     18 C          -5.8537    3.3837    1.3654 C.ar    1  LIG11      -0.0216
     19 C          -6.6453    2.8655    0.2989 C.ar    1  LIG11      -0.0113
     20 C          -8.0341    2.3869    0.5084 C.ar    1  LIG11       0.0090
     21 C          -6.0942    5.4818    3.9859 C.3     1  LIG11       0.0035
     22 C          -4.5601    3.8747    1.0778 C.ar    1  LIG11      -0.0442
     23 C          -9.1992    2.9855   -0.0247 C.ar    1  LIG11       0.1162
     24 C          -6.0671    2.7954   -0.9827 C.ar    1  LIG11      -0.0529
     25 C          -4.0232    3.8608   -0.2167 C.ar    1  LIG11       0.0372
     26 C          -4.7874    3.2988   -1.2393 C.ar    1  LIG11      -0.0489
     27 C          -8.2272    1.2581    1.3360 C.ar    1  LIG11      -0.0521
     28 C         -10.4831    2.5310    0.3483 C.ar    1  LIG11      -0.0345
     29 C          -9.5003    0.8021    1.6903 C.ar    1  LIG11      -0.0611
     30 C          -2.6968    4.4013   -0.5087 C.ar    1  LIG11       0.2271
     31 C         -10.6292    1.4524    1.2127 C.ar    1  LIG11      -0.0599
     32 C          -9.2212    3.7163   -3.9153 C.ar    1  LIG11       0.1837
     33 C         -10.2873    3.3311   -4.7708 C.ar    1  LIG11       0.0342
     34 C          -9.9912    3.9667   -5.9579 C.ar    1  LIG11       0.1390
     35 C         -11.4601    2.4747   -4.4839 C.3     1  LIG11      -0.0330
     36 C          -0.8593    5.4266   -0.0218 C.ar    1  LIG11       0.1125
     37 C          -0.8563    5.0559   -1.3413 C.ar    1  LIG11       0.0663
     38 C         -10.6348    4.0047   -7.2849 C.3     1  LIG11      -0.0034
     39 H          -9.4720    2.3263   -2.4580 H       1  LIG11       0.1753
     40 H          -3.9100    5.4781    5.2463 H       1  LIG11       0.0364
     41 H          -2.6099    4.4310    4.8083 H       1  LIG11       0.0364
     42 H          -5.5502    4.4776    7.2580 H       1  LIG11       0.0235
     43 H          -5.3320    2.7682    6.8454 H       1  LIG11       0.0235
     44 H          -4.7843    3.3720    8.4078 H       1  LIG11       0.0235
     45 H          -3.4867    5.9853    7.5680 H       1  LIG11       0.0235
     46 H          -2.7229    4.7897    8.6228 H       1  LIG11       0.0235
     47 H          -1.8729    5.3663    7.1814 H       1  LIG11       0.0235
     48 H          -3.0027    1.8482    6.3492 H       1  LIG11       0.0235
     49 H          -1.5921    2.9155    6.4189 H       1  LIG11       0.0235
     50 H          -2.4211    2.4367    7.9045 H       1  LIG11       0.0235
     51 H          -6.2855    2.2657    3.1268 H       1  LIG11       0.0514
     52 H          -7.3996    3.6086    2.8627 H       1  LIG11       0.0514
     53 H          -5.8081    5.8839    4.9584 H       1  LIG11       0.0429
     54 H          -5.6925    6.1109    3.1879 H       1  LIG11       0.0429
     55 H          -7.1887    5.4961    3.9481 H       1  LIG11       0.0429
     56 H          -3.9447    4.2698    1.8816 H       1  LIG11       0.0628
     57 H          -6.6152    2.3679   -1.8183 H       1  LIG11       0.0624
     58 H          -4.3967    3.2626   -2.2550 H       1  LIG11       0.0625
     59 H          -7.3633    0.7235    1.7329 H       1  LIG11       0.0624
     60 H         -11.3799    3.0076   -0.0443 H       1  LIG11       0.0637
     61 H          -9.6038   -0.0551    2.3517 H       1  LIG11       0.0618
     62 H         -11.6219    1.1100    1.4972 H       1  LIG11       0.0618
     63 H         -11.4651    2.1204   -3.4492 H       1  LIG11       0.0280
     64 H         -12.3860    3.0380   -4.6425 H       1  LIG11       0.0280
     65 H         -11.4718    1.6007   -5.1418 H       1  LIG11       0.0280
     66 H          -0.1741    5.9440    0.6321 H       1  LIG11       0.1046
     67 H          -0.0869    5.2216   -2.0818 H       1  LIG11       0.0862
     68 H          -9.9585    4.4047   -8.0469 H       1  LIG11       0.0309
     69 H         -10.9307    2.9974   -7.5967 H       1  LIG11       0.0309
     70 H         -11.5316    4.6309   -7.2567 H       1  LIG11       0.0309
@<TRIPOS>BOND
     1     1     3    2
     2     1     4    2
     3     1     8    1
     4     1    23    1
     5     2    16    2
     6     5    30   ar
     7     5    36   ar
     8     6    10   ar
     9     6    34   ar
    10     7    16   am
    11     7    17    1
    12     7    21    1
    13     8    32    1
    14     9    30   ar
    15     9    37   ar
    16    10    32   ar
    17    11    12    1
    18    11    13    1
    19    11    14    1
    20    11    15    1
    21    12    16    1
    22    17    18    1
    23    18    19   ar
    24    18    22   ar
    25    19    20    1
    26    19    24   ar
    27    20    23   ar
    28    20    27   ar
    29    22    25   ar
    30    23    28   ar
    31    24    26   ar
    32    25    26   ar
    33    25    30    1
    34    27    29   ar
    35    28    31   ar
    36    29    31   ar
    37    32    33   ar
    38    33    34   ar
    39    33    35    1
    40    34    38    1
    41    36    37   ar
    42     8    39    1
    43    12    40    1
    44    12    41    1
    45    13    42    1
    46    13    43    1
    47    13    44    1
    48    14    45    1
    49    14    46    1
    50    14    47    1
    51    15    48    1
    52    15    49    1
    53    15    50    1
    54    17    51    1
    55    17    52    1
    56    21    53    1
    57    21    54    1
    58    21    55    1
    59    22    56    1
    60    24    57    1
    61    26    58    1
    62    27    59    1
    63    28    60    1
    64    29    61    1
    65    31    62    1
    66    35    63    1
    67    35    64    1
    68    35    65    1
    69    36    66    1
    70    37    67    1
    71    38    68    1
    72    38    69    1
    73    38    70    1
@<TRIPOS>MOLECULE
../1EDN/PCA1_17-21.pdb
 47 48 0 0 0
SMALL
GASTEIGER

@<TRIPOS>ATOM
      1  N         -4.6470   -0.3680   -1.6750 N.3    17  LEU17      -0.1231
      2  CA        -5.8920   -0.8550   -2.2480 C.3    17  LEU17       0.1693
      3  CB        -6.0770   -2.3450   -1.7480 C.3    17  LEU17       0.0284
      4  CG        -7.4170   -3.0590   -2.1890 C.3    17  LEU17       0.0019
      5  CD1       -7.4920   -3.1930   -3.7220 C.3    17  LEU17       0.0001
      6  CD2       -7.5340   -4.4610   -1.6100 C.3    17  LEU17       0.0001
      7  C         -7.0080    0.1010   -1.8270 C.2    17  LEU17       0.2592
      8  O         -7.6220    0.6590   -2.7680 O.2    17  LEU17      -0.2718
      9  N         -7.2890    0.1920   -0.5460 N.am   18  ASP18      -0.1960
     10  CA        -8.2730    1.1070    0.1120 C.3    18  ASP18       0.1840
     11  CB        -8.8290    0.4520    1.4200 C.3    18  ASP18       0.1450
     12  CG        -9.9140    1.2760    2.0640 C.2    18  ASP18       0.3671
     13  OD1      -10.8560    1.7240    1.3430 O.co2  18  ASP18      -0.2456
     14  OD2       -9.7710    1.5960    3.2830 O.co2  18  ASP18      -0.2456
     15  C         -7.6270    2.4530    0.4740 C.2    18  ASP18       0.2622
     16  O         -8.0770    3.4620   -0.0480 O.2    18  ASP18      -0.2715
     17  N         -6.6010    2.4770    1.3340 N.am   19  ILE19      -0.1963
     18  CA        -6.1660    3.6270    2.0790 C.3    19  ILE19       0.1727
     19  CB        -5.0730    3.3500    3.1520 C.3    19  ILE19       0.0290
     20  CG2       -4.5850    4.5470    3.9530 C.3    19  ILE19       0.0023
     21  CG1       -5.6210    2.1420    3.9730 C.3    19  ILE19       0.0022
     22  CD1       -6.7460    2.5740    4.8760 C.3    19  ILE19       0.0001
     23  C         -5.6740    4.7260    1.1170 C.2    19  ILE19       0.2616
     24  O         -5.9640    5.8590    1.4260 O.2    19  ILE19      -0.2715
     25  N         -4.8940    4.3400    0.1060 N.am   20  ILE20      -0.1963
     26  CA        -4.3700    5.1770   -0.9560 C.3    20  ILE20       0.1727
     27  CB        -2.8480    5.4620   -0.8180 C.3    20  ILE20       0.0290
     28  CG2       -2.5210    6.1670    0.5290 C.3    20  ILE20       0.0023
     29  CG1       -1.9270    4.2500   -0.9510 C.3    20  ILE20       0.0022
     30  CD1       -0.4520    4.4090   -1.0350 C.3    20  ILE20       0.0001
     31  C         -4.8260    4.7960   -2.3980 C.2    20  ILE20       0.2617
     32  O         -4.8210    3.6210   -2.7490 O.2    20  ILE20      -0.2715
     33  N         -5.1950    5.7710   -3.1960 N.am   21  TRP21      -0.1941
     34  CA        -5.6960    5.8160   -4.5740 C.3    21  TRP21       0.1982
     35  CB        -7.1930    6.0870   -4.6010 C.3    21  TRP21       0.0394
     36  CG        -8.1480    4.9210   -4.3560 C.3    21  TRP21       0.0475
     37  CD1       -8.4270    4.3170   -3.1580 C.3    21  TRP21       0.1166
     38  NE1       -9.4680    3.4340   -3.3480 N.pl3  21  TRP21      -0.2376
     39  CE2      -10.0400    3.5420   -4.5600 C.ar   21  TRP21       0.0614
     40  CZ2      -11.2420    2.9770   -5.0990 C.ar   21  TRP21       0.0158
     41  CH2      -11.3060    3.0240   -6.5170 C.ar   21  TRP21       0.0013
     42  CZ3      -10.3640    3.7270   -7.2650 C.ar   21  TRP21      -0.0002
     43  CE3       -9.2810    4.3830   -6.7050 C.ar   21  TRP21      -0.0030
     44  CD2       -9.0950    4.3440   -5.3390 C.ar   21  TRP21      -0.0059
     45  C         -4.8510    6.8160   -5.3910 C.2    21  TRP21       0.3842
     46  O         -5.0400    8.0490   -5.1500 O.co2  21  TRP21      -0.2437
     47  OXT       -3.9720    6.3760   -6.1010 O.co2  21  TRP21      -0.2437
@<TRIPOS>BOND
     1    42    43   ar
     2    42    41   ar
     3    43    44   ar
     4    41    40   ar
     5    47    45   ar
     6    45    46   ar
     7    45    34    1
     8    44    39   ar
     9    44    36    1
    10    40    39   ar
    11    35    34    1
    12    35    36    1
    13    34    33    1
    14    39    38    1
    15    36    37    1
    16     5     4    1
    17    38    37    1
    18    33    31   am
    19     8     7    2
    20    32    31    2
    21    31    26    1
    22     2     7    1
    23     2     3    1
    24     2     1    1
    25     4     3    1
    26     4     6    1
    27     7     9   am
    28    30    29    1
    29    26    27    1
    30    26    25    1
    31    29    27    1
    32    27    28    1
    33     9    10    1
    34    16    15    2
    35    25    23   am
    36    10    15    1
    37    10    11    1
    38    15    17   am
    39    23    24    2
    40    23    18    1
    41    17    18    1
    42    13    12   ar
    43    11    12    1
    44    12    14   ar
    45    18    19    1
    46    19    20    1
    47    19    21    1
    48    21    22    1
