@<TRIPOS>MOLECULE
../1EDN/PCA1_17-21_NOBACKBONE.pdb
 26 23 0 0 0
SMALL
GASTEIGER

@<TRIPOS>ATOM
      1  CB        -6.0770   -2.3450   -1.7480 C.3    17  LEU17       0.0000
      2  CG        -7.4170   -3.0590   -2.1890 C.3    17  LEU17       0.0000
      3  CD1       -7.4920   -3.1930   -3.7220 C.3    17  LEU17       0.0000
      4  CD2       -7.5340   -4.4610   -1.6100 C.3    17  LEU17       0.0000
      5  CB        -8.8290    0.4520    1.4200 C.3    18  ASP18       0.1258
      6  CG        -9.9140    1.2760    2.0640 C.2    18  ASP18       0.3654
      7  OD1      -10.8560    1.7240    1.3430 O.co2  18  ASP18      -0.2456
      8  OD2       -9.7710    1.5960    3.2830 O.co2  18  ASP18      -0.2456
      9  CB        -5.0730    3.3500    3.1520 C.3    19  ILE19       0.0000
     10  CG2       -4.5850    4.5470    3.9530 C.3    19  ILE19       0.0000
     11  CG1       -5.6210    2.1420    3.9730 C.3    19  ILE19       0.0000
     12  CD1       -6.7460    2.5740    4.8760 C.3    19  ILE19       0.0000
     13  CB        -2.8480    5.4620   -0.8180 C.3    20  ILE20       0.0000
     14  CG2       -2.5210    6.1670    0.5290 C.3    20  ILE20       0.0000
     15  CG1       -1.9270    4.2500   -0.9510 C.3    20  ILE20       0.0000
     16  CD1       -0.4520    4.4090   -1.0350 C.3    20  ILE20       0.0000
     17  CB        -7.1930    6.0870   -4.6010 C.3    21  TRP21       0.0066
     18  CG        -8.1480    4.9210   -4.3560 C.3    21  TRP21       0.0452
     19  CD1       -8.4270    4.3170   -3.1580 C.3    21  TRP21       0.1165
     20  NE1       -9.4680    3.4340   -3.3480 N.pl3  21  TRP21      -0.2376
     21  CE2      -10.0400    3.5420   -4.5600 C.ar   21  TRP21       0.0614
     22  CZ2      -11.2420    2.9770   -5.0990 C.ar   21  TRP21       0.0158
     23  CH2      -11.3060    3.0240   -6.5170 C.ar   21  TRP21       0.0013
     24  CZ3      -10.3640    3.7270   -7.2650 C.ar   21  TRP21      -0.0002
     25  CE3       -9.2810    4.3830   -6.7050 C.ar   21  TRP21      -0.0030
     26  CD2       -9.0950    4.3440   -5.3390 C.ar   21  TRP21      -0.0059
@<TRIPOS>BOND
     1    24    25   ar
     2    24    23   ar
     3    25    26   ar
     4    23    22   ar
     5    26    21   ar
     6    26    18    1
     7    22    21   ar
     8    17    18    1
     9    21    20    1
    10    18    19    1
    11     3     2    1
    12    20    19    1
    13     2     1    1
    14     2     4    1
    15    16    15    1
    16    15    13    1
    17    13    14    1
    18     7     6   ar
    19     5     6    1
    20     6     8   ar
    21     9    10    1
    22     9    11    1
    23    11    12    1
@<TRIPOS>MOLECULE
9957262
 56 59 0 0 0
SMALL
GASTEIGER

@<TRIPOS>ATOM
      1 S          -7.2900    4.2600   -2.4653 S.O2    1  LIG11       0.0668
      2 O          -4.3048    3.8664   -0.6095 O.3     1  LIG11      -0.4435
      3 O          -4.2147    3.7557    2.2666 O.3     1  LIG11      -0.4771
      4 O          -8.0699    4.9306   -1.4476 O.2     1  LIG11      -0.1505
      5 O          -6.1915    4.9503   -3.1119 O.2     1  LIG11      -0.1505
      6 O          -1.3520    3.9052   -0.7674 O.3     1  LIG11      -0.4914
      7 N          -6.5745    2.8595   -1.8236 N.pl3   1  LIG11      -0.1968
      8 N          -7.5054    2.3953    0.2434 N.ar    1  LIG11      -0.2044
      9 N          -6.3872    2.9093    2.2821 N.ar    1  LIG11      -0.1867
     10 N          -8.7259    2.2959    3.6679 N.ar    1  LIG11      -0.2331
     11 N          -9.4817    1.0814    1.7533 N.ar    1  LIG11      -0.2331
     12 C          -6.4430    2.8936   -0.4029 C.ar    1  LIG11       0.1883
     13 C          -5.3251    3.4385    0.1975 C.ar    1  LIG11       0.2307
     14 C          -5.3467    3.3859    1.5743 C.ar    1  LIG11       0.2639
     15 C          -3.5568    4.9557   -0.2282 C.ar    1  LIG11       0.1702
     16 C          -8.3502    3.6535   -3.6957 C.2     1  LIG11       0.0729
     17 C          -7.4506    2.4379    1.5904 C.ar    1  LIG11       0.2027
     18 C          -2.1585    4.9214   -0.3300 C.ar    1  LIG11       0.1621
     19 C          -8.9073    4.5201   -4.5554 C.2     1  LIG11      -0.0353
     20 C          -9.7639    4.1467   -5.6925 C.ar    1  LIG11      -0.0237
     21 C          -4.1981    6.1347    0.1926 C.ar    1  LIG11      -0.0157
     22 C          -8.6105    1.9174    2.3711 C.ar    1  LIG11       0.1978
     23 C          -1.4273    6.0546    0.0557 C.ar    1  LIG11      -0.0163
     24 C          -3.4528    7.2466    0.5829 C.ar    1  LIG11      -0.0581
     25 C          -2.0642    7.2052    0.5209 C.ar    1  LIG11      -0.0581
     26 C          -9.8905    5.0527   -6.7563 C.ar    1  LIG11      -0.0546
     27 C         -10.4790    2.9435   -5.7541 C.ar    1  LIG11      -0.0546
     28 C         -10.6899    4.7530   -7.8633 C.ar    1  LIG11      -0.0612
     29 C         -11.2764    2.6415   -6.8630 C.ar    1  LIG11      -0.0612
     30 C         -11.3792    3.5450   -7.9179 C.ar    1  LIG11      -0.0617
     31 C          -4.4585    4.0438    3.6395 C.3     1  LIG11       0.0805
     32 C          -1.9382    2.6722   -1.1493 C.3     1  LIG11       0.0790
     33 C          -9.7783    1.8085    4.3515 C.ar    1  LIG11       0.0315
     34 C         -10.5088    0.6233    2.4915 C.ar    1  LIG11       0.0315
     35 C         -10.7078    0.9597    3.8104 C.ar    1  LIG11      -0.0254
     36 H          -5.6532    2.8060   -2.2624 H       1  LIG11       0.1753
     37 H          -8.4884    2.5844   -3.7365 H       1  LIG11       0.0838
     38 H          -8.6982    5.5851   -4.4528 H       1  LIG11       0.0637
     39 H          -5.2837    6.1975    0.2244 H       1  LIG11       0.0655
     40 H          -0.3412    6.0361   -0.0100 H       1  LIG11       0.0655
     41 H          -3.9564    8.1470    0.9295 H       1  LIG11       0.0619
     42 H          -1.4757    8.0673    0.8203 H       1  LIG11       0.0619
     43 H          -9.3594    6.0026   -6.7406 H       1  LIG11       0.0623
     44 H         -10.4371    2.2226   -4.9420 H       1  LIG11       0.0623
     45 H         -10.7715    5.4643   -8.6820 H       1  LIG11       0.0618
     46 H         -11.8203    1.7017   -6.8998 H       1  LIG11       0.0618
     47 H         -11.9993    3.3100   -8.7793 H       1  LIG11       0.0618
     48 H          -3.5365    4.4547    4.0641 H       1  LIG11       0.0660
     49 H          -5.2424    4.8010    3.7540 H       1  LIG11       0.0660
     50 H          -4.7061    3.1345    4.1972 H       1  LIG11       0.0660
     51 H          -1.1298    2.0007   -1.4551 H       1  LIG11       0.0660
     52 H          -2.4509    2.1992   -0.3062 H       1  LIG11       0.0660
     53 H          -2.5984    2.7949   -2.0142 H       1  LIG11       0.0660
     54 H          -9.8486    2.1378    5.3857 H       1  LIG11       0.0831
     55 H         -11.1887   -0.0470    1.9743 H       1  LIG11       0.0831
     56 H         -11.5442    0.5791    4.3813 H       1  LIG11       0.0648
@<TRIPOS>BOND
     1     1     4    2
     2     1     5    2
     3     1     7    1
     4     1    16    1
     5     2    13    1
     6     2    15    1
     7     3    14    1
     8     3    31    1
     9     6    18    1
    10     6    32    1
    11     7    12    1
    12     8    12   ar
    13     8    17   ar
    14     9    14   ar
    15     9    17   ar
    16    10    22   ar
    17    10    33   ar
    18    11    22   ar
    19    11    34   ar
    20    12    13   ar
    21    13    14   ar
    22    15    18   ar
    23    15    21   ar
    24    16    19    2
    25    17    22    1
    26    18    23   ar
    27    19    20    1
    28    20    26   ar
    29    20    27   ar
    30    21    24   ar
    31    23    25   ar
    32    24    25   ar
    33    26    28   ar
    34    27    29   ar
    35    28    30   ar
    36    29    30   ar
    37    33    35   ar
    38    34    35   ar
    39     7    36    1
    40    16    37    1
    41    19    38    1
    42    21    39    1
    43    23    40    1
    44    24    41    1
    45    25    42    1
    46    26    43    1
    47    27    44    1
    48    28    45    1
    49    29    46    1
    50    30    47    1
    51    31    48    1
    52    31    49    1
    53    31    50    1
    54    32    51    1
    55    32    52    1
    56    32    53    1
    57    33    54    1
    58    34    55    1
    59    35    56    1
@<TRIPOS>MOLECULE
../1EDN/PCA1_17-21.pdb
 47 48 0 0 0
SMALL
GASTEIGER

@<TRIPOS>ATOM
      1  N         -4.6470   -0.3680   -1.6750 N.3    17  LEU17      -0.1231
      2  CA        -5.8920   -0.8550   -2.2480 C.3    17  LEU17       0.1693
      3  CB        -6.0770   -2.3450   -1.7480 C.3    17  LEU17       0.0284
      4  CG        -7.4170   -3.0590   -2.1890 C.3    17  LEU17       0.0019
      5  CD1       -7.4920   -3.1930   -3.7220 C.3    17  LEU17       0.0001
      6  CD2       -7.5340   -4.4610   -1.6100 C.3    17  LEU17       0.0001
      7  C         -7.0080    0.1010   -1.8270 C.2    17  LEU17       0.2592
      8  O         -7.6220    0.6590   -2.7680 O.2    17  LEU17      -0.2718
      9  N         -7.2890    0.1920   -0.5460 N.am   18  ASP18      -0.1960
     10  CA        -8.2730    1.1070    0.1120 C.3    18  ASP18       0.1840
     11  CB        -8.8290    0.4520    1.4200 C.3    18  ASP18       0.1450
     12  CG        -9.9140    1.2760    2.0640 C.2    18  ASP18       0.3671
     13  OD1      -10.8560    1.7240    1.3430 O.co2  18  ASP18      -0.2456
     14  OD2       -9.7710    1.5960    3.2830 O.co2  18  ASP18      -0.2456
     15  C         -7.6270    2.4530    0.4740 C.2    18  ASP18       0.2622
     16  O         -8.0770    3.4620   -0.0480 O.2    18  ASP18      -0.2715
     17  N         -6.6010    2.4770    1.3340 N.am   19  ILE19      -0.1963
     18  CA        -6.1660    3.6270    2.0790 C.3    19  ILE19       0.1727
     19  CB        -5.0730    3.3500    3.1520 C.3    19  ILE19       0.0290
     20  CG2       -4.5850    4.5470    3.9530 C.3    19  ILE19       0.0023
     21  CG1       -5.6210    2.1420    3.9730 C.3    19  ILE19       0.0022
     22  CD1       -6.7460    2.5740    4.8760 C.3    19  ILE19       0.0001
     23  C         -5.6740    4.7260    1.1170 C.2    19  ILE19       0.2616
     24  O         -5.9640    5.8590    1.4260 O.2    19  ILE19      -0.2715
     25  N         -4.8940    4.3400    0.1060 N.am   20  ILE20      -0.1963
     26  CA        -4.3700    5.1770   -0.9560 C.3    20  ILE20       0.1727
     27  CB        -2.8480    5.4620   -0.8180 C.3    20  ILE20       0.0290
     28  CG2       -2.5210    6.1670    0.5290 C.3    20  ILE20       0.0023
     29  CG1       -1.9270    4.2500   -0.9510 C.3    20  ILE20       0.0022
     30  CD1       -0.4520    4.4090   -1.0350 C.3    20  ILE20       0.0001
     31  C         -4.8260    4.7960   -2.3980 C.2    20  ILE20       0.2617
     32  O         -4.8210    3.6210   -2.7490 O.2    20  ILE20      -0.2715
     33  N         -5.1950    5.7710   -3.1960 N.am   21  TRP21      -0.1941
     34  CA        -5.6960    5.8160   -4.5740 C.3    21  TRP21       0.1982
     35  CB        -7.1930    6.0870   -4.6010 C.3    21  TRP21       0.0394
     36  CG        -8.1480    4.9210   -4.3560 C.3    21  TRP21       0.0475
     37  CD1       -8.4270    4.3170   -3.1580 C.3    21  TRP21       0.1166
     38  NE1       -9.4680    3.4340   -3.3480 N.pl3  21  TRP21      -0.2376
     39  CE2      -10.0400    3.5420   -4.5600 C.ar   21  TRP21       0.0614
     40  CZ2      -11.2420    2.9770   -5.0990 C.ar   21  TRP21       0.0158
     41  CH2      -11.3060    3.0240   -6.5170 C.ar   21  TRP21       0.0013
     42  CZ3      -10.3640    3.7270   -7.2650 C.ar   21  TRP21      -0.0002
     43  CE3       -9.2810    4.3830   -6.7050 C.ar   21  TRP21      -0.0030
     44  CD2       -9.0950    4.3440   -5.3390 C.ar   21  TRP21      -0.0059
     45  C         -4.8510    6.8160   -5.3910 C.2    21  TRP21       0.3842
     46  O         -5.0400    8.0490   -5.1500 O.co2  21  TRP21      -0.2437
     47  OXT       -3.9720    6.3760   -6.1010 O.co2  21  TRP21      -0.2437
@<TRIPOS>BOND
     1    42    43   ar
     2    42    41   ar
     3    43    44   ar
     4    41    40   ar
     5    47    45   ar
     6    45    46   ar
     7    45    34    1
     8    44    39   ar
     9    44    36    1
    10    40    39   ar
    11    35    34    1
    12    35    36    1
    13    34    33    1
    14    39    38    1
    15    36    37    1
    16     5     4    1
    17    38    37    1
    18    33    31   am
    19     8     7    2
    20    32    31    2
    21    31    26    1
    22     2     7    1
    23     2     3    1
    24     2     1    1
    25     4     3    1
    26     4     6    1
    27     7     9   am
    28    30    29    1
    29    26    27    1
    30    26    25    1
    31    29    27    1
    32    27    28    1
    33     9    10    1
    34    16    15    2
    35    25    23   am
    36    10    15    1
    37    10    11    1
    38    15    17   am
    39    23    24    2
    40    23    18    1
    41    17    18    1
    42    13    12   ar
    43    11    12    1
    44    12    14   ar
    45    18    19    1
    46    19    20    1
    47    19    21    1
    48    21    22    1
