@<TRIPOS>MOLECULE
../1EDN/PCA2_17-21_NOBACKBONE.pdb
 26 23 0 0 0
SMALL
GASTEIGER

@<TRIPOS>ATOM
      1  CB        -5.9860   -1.2020   -0.4580 C.3    17  LEU17       0.0000
      2  CG        -7.1280   -2.2100   -0.5390 C.3    17  LEU17       0.0000
      3  CD1       -6.7120   -3.3620   -1.4700 C.3    17  LEU17       0.0000
      4  CD2       -7.4980   -2.5610    0.9130 C.3    17  LEU17       0.0000
      5  CB        -9.6810    1.0560   -1.6740 C.3    18  ASP18       0.1258
      6  CG       -11.0010    1.6360   -2.1090 C.2    18  ASP18       0.3654
      7  OD1      -11.5960    2.3310   -1.2790 O.co2  18  ASP18      -0.2456
      8  OD2      -11.5460    1.2700   -3.1630 O.co2  18  ASP18      -0.2456
      9  CB        -8.4260    4.8620    1.7600 C.3    19  ILE19       0.0000
     10  CG2       -7.7310    6.0060    2.5190 C.3    19  ILE19       0.0000
     11  CG1       -9.9240    4.5740    2.2500 C.3    19  ILE19       0.0000
     12  CD1      -10.9740    5.6950    2.0110 C.3    19  ILE19       0.0000
     13  CB        -3.5230    4.9310   -0.1080 C.3    20  ILE20       0.0000
     14  CG2       -2.1210    5.5060   -0.7390 C.3    20  ILE20       0.0000
     15  CG1       -3.5940    5.4760    1.3470 C.3    20  ILE20       0.0000
     16  CD1       -2.3570    5.1940    2.2260 C.3    20  ILE20       0.0000
     17  CB        -6.6210    3.8650   -5.0310 C.3    21  TRP21       0.0327
     18  CG        -6.7890    3.3770   -6.4480 C.ar   21  TRP21      -0.0013
     19  CD1       -7.1340    4.1960   -7.4760 C.ar   21  TRP21       0.0946
     20  NE1       -7.1740    3.4060   -8.6160 N.ar   21  TRP21      -0.2442
     21  CE2       -6.9360    2.0750   -8.3350 C.ar   21  TRP21       0.0810
     22  CZ2       -6.8300    1.0510   -9.2060 C.ar   21  TRP21       0.0191
     23  CH2       -6.3330   -0.2010   -8.7710 C.ar   21  TRP21       0.0015
     24  CZ3       -5.9560   -0.2520   -7.3640 C.ar   21  TRP21       0.0001
     25  CE3       -6.0150    0.8940   -6.5860 C.ar   21  TRP21       0.0012
     26  CD2       -6.6320    2.0560   -6.9830 C.ar   21  TRP21       0.0152
@<TRIPOS>BOND
     1    22    23   ar
     2    22    21   ar
     3    23    24   ar
     4    20    21   ar
     5    20    19   ar
     6    21    26   ar
     7    19    18   ar
     8    24    25   ar
     9    26    25   ar
    10    26    18   ar
    11    18    17    1
    12     8     6   ar
    13     6     5    1
    14     6     7   ar
    15     3     2    1
    16    14    13    1
    17     2     1    1
    18     2     4    1
    19    13    15    1
    20    15    16    1
    21     9    11    1
    22     9    10    1
    23    12    11    1
@<TRIPOS>MOLECULE
9912992
 55 58 0 0 0
SMALL
GASTEIGER

@<TRIPOS>ATOM
      1 S          -8.9262    3.0336   -2.1215 S.O2    1  LIG11       0.0908
      2 O          -6.6680    2.0592   -4.6866 O.3     1  LIG11      -0.4435
      3 O          -4.0589    3.1869   -5.1885 O.3     1  LIG11      -0.4771
      4 O          -9.9751    2.1247   -2.5362 O.2     1  LIG11      -0.1484
      5 O          -8.6513    4.2403   -2.8801 O.2     1  LIG11      -0.1484
      6 O          -6.6249    0.3525   -6.7180 O.3     1  LIG11      -0.4914
      7 N          -7.5255    2.0866   -2.0490 N.pl3   1  LIG11      -0.1950
      8 N          -5.7044    3.3961   -1.4448 N.ar    1  LIG11      -0.2073
      9 N          -3.9747    3.9276   -2.9901 N.ar    1  LIG11      -0.1899
     10 N         -10.2184    2.8754    0.2178 N.ar    1  LIG11      -0.2351
     11 N          -2.3513    6.1787    1.2090 N.ar    1  LIG11      -0.2632
     12 C          -6.3248    2.7373   -2.4419 C.ar    1  LIG11       0.1882
     13 C          -5.8946    2.6995   -3.7552 C.ar    1  LIG11       0.2307
     14 C          -9.1930    3.5042   -0.4127 C.ar    1  LIG11       0.1969
     15 C          -4.6699    3.3003   -3.9587 C.ar    1  LIG11       0.2638
     16 C          -4.5311    3.9691   -1.7682 C.ar    1  LIG11       0.1659
     17 C          -8.4114    4.4951    0.1574 C.ar    1  LIG11      -0.0160
     18 C          -3.7885    4.7071   -0.7315 C.ar    1  LIG11       0.0222
     19 C          -6.7283    2.5853   -5.9644 C.ar    1  LIG11       0.1702
     20 C          -9.7076    4.2201    2.1711 C.ar    1  LIG11      -0.0322
     21 C          -8.6679    4.8461    1.4792 C.ar    1  LIG11      -0.0541
     22 C         -10.4559    3.2596    1.4910 C.ar    1  LIG11       0.0327
     23 C          -6.6735    1.6850   -7.0401 C.ar    1  LIG11       0.1621
     24 C          -6.8690    3.9605   -6.1992 C.ar    1  LIG11      -0.0157
     25 C         -10.0408    4.5905    3.5828 C.3     1  LIG11      -0.0383
     26 C          -2.4078    4.9332   -0.8526 C.ar    1  LIG11      -0.0329
     27 C          -4.4198    5.2340    0.4026 C.ar    1  LIG11      -0.0329
     28 C          -6.6431    2.1887   -8.3448 C.ar    1  LIG11      -0.0163
     29 C          -6.8337    4.4496   -7.5042 C.ar    1  LIG11      -0.0581
     30 C          -6.7053    3.5672   -8.5730 C.ar    1  LIG11      -0.0581
     31 C          -1.7443    5.6569    0.1260 C.ar    1  LIG11       0.0282
     32 C          -3.6751    5.9558    1.3233 C.ar    1  LIG11       0.0282
     33 C          -3.3256    4.3583   -5.5341 C.3     1  LIG11       0.0805
     34 C          -6.8927   -0.5665   -7.7698 C.3     1  LIG11       0.0790
     35 H          -7.7187    1.2158   -2.5423 H       1  LIG11       0.1754
     36 H          -7.6285    4.9830   -0.4111 H       1  LIG11       0.0653
     37 H          -8.0628    5.6102    1.9605 H       1  LIG11       0.0622
     38 H         -11.2965    2.7625    1.9687 H       1  LIG11       0.0833
     39 H          -6.9822    4.6594   -5.3750 H       1  LIG11       0.0655
     40 H          -9.2656    5.2282    4.0210 H       1  LIG11       0.0278
     41 H         -10.9895    5.1351    3.6167 H       1  LIG11       0.0278
     42 H         -10.1181    3.6928    4.2050 H       1  LIG11       0.0278
     43 H          -1.8488    4.5473   -1.7003 H       1  LIG11       0.0640
     44 H          -5.4808    5.0987    0.5685 H       1  LIG11       0.0640
     45 H          -6.5562    1.5347   -9.2061 H       1  LIG11       0.0655
     46 H          -6.9001    5.5202   -7.6858 H       1  LIG11       0.0619
     47 H          -6.6637    3.9489   -9.5906 H       1  LIG11       0.0619
     48 H          -0.6756    5.8402    0.0572 H       1  LIG11       0.0830
     49 H          -4.1423    6.3905    2.2029 H       1  LIG11       0.0830
     50 H          -3.0635    4.2872   -6.5938 H       1  LIG11       0.0660
     51 H          -3.9299    5.2637   -5.4016 H       1  LIG11       0.0660
     52 H          -2.3960    4.4257   -4.9598 H       1  LIG11       0.0660
     53 H          -7.0113   -1.5594   -7.3254 H       1  LIG11       0.0660
     54 H          -7.8252   -0.3250   -8.2921 H       1  LIG11       0.0660
     55 H          -6.0501   -0.6108   -8.4671 H       1  LIG11       0.0660
@<TRIPOS>BOND
     1     1     4    2
     2     1     5    2
     3     1     7    1
     4     1    14    1
     5     2    13    1
     6     2    19    1
     7     3    15    1
     8     3    33    1
     9     6    23    1
    10     6    34    1
    11     7    12    1
    12     8    12   ar
    13     8    16   ar
    14     9    15   ar
    15     9    16   ar
    16    10    14   ar
    17    10    22   ar
    18    11    31   ar
    19    11    32   ar
    20    12    13   ar
    21    13    15   ar
    22    14    17   ar
    23    16    18    1
    24    17    21   ar
    25    18    26   ar
    26    18    27   ar
    27    19    23   ar
    28    19    24   ar
    29    20    21   ar
    30    20    22   ar
    31    20    25    1
    32    23    28   ar
    33    24    29   ar
    34    26    31   ar
    35    27    32   ar
    36    28    30   ar
    37    29    30   ar
    38     7    35    1
    39    17    36    1
    40    21    37    1
    41    22    38    1
    42    24    39    1
    43    25    40    1
    44    25    41    1
    45    25    42    1
    46    26    43    1
    47    27    44    1
    48    28    45    1
    49    29    46    1
    50    30    47    1
    51    31    48    1
    52    32    49    1
    53    33    50    1
    54    33    51    1
    55    33    52    1
    56    34    53    1
    57    34    54    1
    58    34    55    1
@<TRIPOS>MOLECULE
../1EDN/PCA2_17-21.pdb
 47 48 0 0 0
SMALL
GASTEIGER

@<TRIPOS>ATOM
      1  N         -4.4680    0.3970   -1.5420 N.3    17  LEU17      -0.1231
      2  CA        -5.5730   -0.5090   -1.8150 C.3    17  LEU17       0.1693
      3  CB        -5.9860   -1.2020   -0.4580 C.3    17  LEU17       0.0284
      4  CG        -7.1280   -2.2100   -0.5390 C.3    17  LEU17       0.0019
      5  CD1       -6.7120   -3.3620   -1.4700 C.3    17  LEU17       0.0001
      6  CD2       -7.4980   -2.5610    0.9130 C.3    17  LEU17       0.0001
      7  C         -6.7000    0.2280   -2.5610 C.2    17  LEU17       0.2592
      8  O         -7.1860   -0.2780   -3.5510 O.2    17  LEU17      -0.2718
      9  N         -7.2650    1.2690   -1.9650 N.am   18  ASP18      -0.1960
     10  CA        -8.5260    1.8930   -2.2590 C.3    18  ASP18       0.1840
     11  CB        -9.6810    1.0560   -1.6740 C.3    18  ASP18       0.1450
     12  CG       -11.0010    1.6360   -2.1090 C.2    18  ASP18       0.3671
     13  OD1      -11.5960    2.3310   -1.2790 O.co2  18  ASP18      -0.2456
     14  OD2      -11.5460    1.2700   -3.1630 O.co2  18  ASP18      -0.2456
     15  C         -8.5570    3.3770   -1.7380 C.2    18  ASP18       0.2622
     16  O         -8.6960    4.2620   -2.5680 O.2    18  ASP18      -0.2715
     17  N         -8.4180    3.5730   -0.4160 N.am   19  ILE19      -0.1963
     18  CA        -8.3980    4.9040    0.1930 C.3    19  ILE19       0.1727
     19  CB        -8.4260    4.8620    1.7600 C.3    19  ILE19       0.0290
     20  CG2       -7.7310    6.0060    2.5190 C.3    19  ILE19       0.0023
     21  CG1       -9.9240    4.5740    2.2500 C.3    19  ILE19       0.0022
     22  CD1      -10.9740    5.6950    2.0110 C.3    19  ILE19       0.0001
     23  C         -7.1570    5.7010   -0.3260 C.2    19  ILE19       0.2616
     24  O         -7.3050    6.7970   -0.9200 O.2    19  ILE19      -0.2715
     25  N         -5.9900    5.0720   -0.2260 N.am   20  ILE20      -0.1963
     26  CA        -4.7520    5.3490   -0.9430 C.3    20  ILE20       0.1727
     27  CB        -3.5230    4.9310   -0.1080 C.3    20  ILE20       0.0290
     28  CG2       -2.1210    5.5060   -0.7390 C.3    20  ILE20       0.0023
     29  CG1       -3.5940    5.4760    1.3470 C.3    20  ILE20       0.0022
     30  CD1       -2.3570    5.1940    2.2260 C.3    20  ILE20       0.0001
     31  C         -4.7590    4.7050   -2.3650 C.2    20  ILE20       0.2617
     32  O         -4.2060    3.6200   -2.5900 O.2    20  ILE20      -0.2715
     33  N         -5.4060    5.3330   -3.3880 N.am   21  TRP21      -0.1938
     34  CA        -5.3950    4.7680   -4.7850 C.3    21  TRP21       0.2021
     35  CB        -6.6210    3.8650   -5.0310 C.3    21  TRP21       0.0612
     36  CG        -6.7890    3.3770   -6.4480 C.ar   21  TRP21       0.0007
     37  CD1       -7.1340    4.1960   -7.4760 C.ar   21  TRP21       0.0946
     38  NE1       -7.1740    3.4060   -8.6160 N.ar   21  TRP21      -0.2442
     39  CE2       -6.9360    2.0750   -8.3350 C.ar   21  TRP21       0.0810
     40  CZ2       -6.8300    1.0510   -9.2060 C.ar   21  TRP21       0.0191
     41  CH2       -6.3330   -0.2010   -8.7710 C.ar   21  TRP21       0.0015
     42  CZ3       -5.9560   -0.2520   -7.3640 C.ar   21  TRP21       0.0001
     43  CE3       -6.0150    0.8940   -6.5860 C.ar   21  TRP21       0.0012
     44  CD2       -6.6320    2.0560   -6.9830 C.ar   21  TRP21       0.0152
     45  C         -5.1960    5.8550   -5.8260 C.2    21  TRP21       0.3845
     46  O         -4.1840    5.6720   -6.5070 O.co2  21  TRP21      -0.2437
     47  OXT       -5.9640    6.8330   -6.0170 O.co2  21  TRP21      -0.2437
@<TRIPOS>BOND
     1    40    41   ar
     2    40    39   ar
     3    41    42   ar
     4    38    39   ar
     5    38    37   ar
     6    39    44   ar
     7    37    36   ar
     8    42    43   ar
     9    44    43   ar
    10    44    36   ar
    11    46    45   ar
    12    36    35    1
    13    47    45   ar
    14    45    34    1
    15    35    34    1
    16    34    33    1
    17     8     7    2
    18    33    31   am
    19    14    12   ar
    20    32    31    2
    21    16    15    2
    22     7     9   am
    23     7     2    1
    24    31    26    1
    25    10     9    1
    26    10    15    1
    27    10    11    1
    28    12    11    1
    29    12    13   ar
    30     2     1    1
    31     2     3    1
    32    15    17   am
    33     5     4    1
    34    26    25    1
    35    26    27    1
    36    24    23    2
    37    28    27    1
    38     4     3    1
    39     4     6    1
    40    17    18    1
    41    23    25   am
    42    23    18    1
    43    27    29    1
    44    18    19    1
    45    29    30    1
    46    19    21    1
    47    19    20    1
    48    22    21    1
