@<TRIPOS>MOLECULE
../1EDN/PCA2_17-21_NOBACKBONE.pdb
 26 23 0 0 0
SMALL
GASTEIGER

@<TRIPOS>ATOM
      1  CB        -5.9860   -1.2020   -0.4580 C.3    17  LEU17       0.0000
      2  CG        -7.1280   -2.2100   -0.5390 C.3    17  LEU17       0.0000
      3  CD1       -6.7120   -3.3620   -1.4700 C.3    17  LEU17       0.0000
      4  CD2       -7.4980   -2.5610    0.9130 C.3    17  LEU17       0.0000
      5  CB        -9.6810    1.0560   -1.6740 C.3    18  ASP18       0.1258
      6  CG       -11.0010    1.6360   -2.1090 C.2    18  ASP18       0.3654
      7  OD1      -11.5960    2.3310   -1.2790 O.co2  18  ASP18      -0.2456
      8  OD2      -11.5460    1.2700   -3.1630 O.co2  18  ASP18      -0.2456
      9  CB        -8.4260    4.8620    1.7600 C.3    19  ILE19       0.0000
     10  CG2       -7.7310    6.0060    2.5190 C.3    19  ILE19       0.0000
     11  CG1       -9.9240    4.5740    2.2500 C.3    19  ILE19       0.0000
     12  CD1      -10.9740    5.6950    2.0110 C.3    19  ILE19       0.0000
     13  CB        -3.5230    4.9310   -0.1080 C.3    20  ILE20       0.0000
     14  CG2       -2.1210    5.5060   -0.7390 C.3    20  ILE20       0.0000
     15  CG1       -3.5940    5.4760    1.3470 C.3    20  ILE20       0.0000
     16  CD1       -2.3570    5.1940    2.2260 C.3    20  ILE20       0.0000
     17  CB        -6.6210    3.8650   -5.0310 C.3    21  TRP21       0.0327
     18  CG        -6.7890    3.3770   -6.4480 C.ar   21  TRP21      -0.0013
     19  CD1       -7.1340    4.1960   -7.4760 C.ar   21  TRP21       0.0946
     20  NE1       -7.1740    3.4060   -8.6160 N.ar   21  TRP21      -0.2442
     21  CE2       -6.9360    2.0750   -8.3350 C.ar   21  TRP21       0.0810
     22  CZ2       -6.8300    1.0510   -9.2060 C.ar   21  TRP21       0.0191
     23  CH2       -6.3330   -0.2010   -8.7710 C.ar   21  TRP21       0.0015
     24  CZ3       -5.9560   -0.2520   -7.3640 C.ar   21  TRP21       0.0001
     25  CE3       -6.0150    0.8940   -6.5860 C.ar   21  TRP21       0.0012
     26  CD2       -6.6320    2.0560   -6.9830 C.ar   21  TRP21       0.0152
@<TRIPOS>BOND
     1    22    23   ar
     2    22    21   ar
     3    23    24   ar
     4    20    21   ar
     5    20    19   ar
     6    21    26   ar
     7    19    18   ar
     8    24    25   ar
     9    26    25   ar
    10    26    18   ar
    11    18    17    1
    12     8     6   ar
    13     6     5    1
    14     6     7   ar
    15     3     2    1
    16    14    13    1
    17     2     1    1
    18     2     4    1
    19    13    15    1
    20    15    16    1
    21     9    11    1
    22     9    10    1
    23    12    11    1
@<TRIPOS>MOLECULE
177236
 51 53 0 0 0
SMALL
GASTEIGER

@<TRIPOS>ATOM
      1 O          -7.9685    2.5269   -1.0428 O.3     1  LIG11      -0.3632
      2 O          -8.2674    1.6800   -4.7249 O.3     1  LIG11      -0.4494
      3 O          -9.7537    3.9232   -4.2364 O.co2   1  LIG11      -0.5459
      4 O          -7.9369    4.8497   -3.2254 O.co2   1  LIG11      -0.5459
      5 O          -6.4548    0.3215   -8.7768 O.3     1  LIG11      -0.4794
      6 O          -5.5038    4.6075   -7.1464 O.3     1  LIG11      -0.4794
      7 N          -7.4250    1.0201   -6.7443 N.ar    1  LIG11      -0.1594
      8 N          -6.8943    3.1750   -5.9077 N.ar    1  LIG11      -0.1594
      9 C          -8.3398    1.7492   -2.2262 C.3     1  LIG11       0.1609
     10 C          -7.9436    2.4840   -3.5555 C.3     1  LIG11       0.1791
     11 C          -9.8764    1.5088   -2.1389 C.ar    1  LIG11      -0.0075
     12 C          -7.6314    0.3660   -1.9870 C.ar    1  LIG11      -0.0075
     13 C         -10.5092    0.5577   -2.9631 C.ar    1  LIG11      -0.0554
     14 C          -7.7721   -0.2615   -0.7273 C.ar    1  LIG11      -0.0554
     15 C         -10.6822    2.2196   -1.2301 C.ar    1  LIG11      -0.0554
     16 C          -6.8572   -0.3020   -2.9489 C.ar    1  LIG11      -0.0554
     17 C          -8.6261    3.8753   -3.6637 C.2     1  LIG11       0.0856
     18 C          -6.6222    2.9718   -0.9587 C.3     1  LIG11       0.0382
     19 C         -11.8832    0.3183   -2.8722 C.ar    1  LIG11      -0.0614
     20 C          -7.1674   -1.4890   -0.4459 C.ar    1  LIG11      -0.0614
     21 C         -12.0554    1.9756   -1.1344 C.ar    1  LIG11      -0.0614
     22 C          -6.2637   -1.5397   -2.6731 C.ar    1  LIG11      -0.0614
     23 C         -12.6552    1.0233   -1.9535 C.ar    1  LIG11      -0.0617
     24 C          -6.4157   -2.1309   -1.4228 C.ar    1  LIG11      -0.0617
     25 C          -7.5296    2.0047   -5.8413 C.ar    1  LIG11       0.3249
     26 C          -6.6463    1.2887   -7.8045 C.ar    1  LIG11       0.2240
     27 C          -6.1610    3.4001   -7.0025 C.ar    1  LIG11       0.2240
     28 C          -5.9874    2.4761   -7.9973 C.ar    1  LIG11       0.0617
     29 C          -7.1139   -0.9043   -8.4713 C.3     1  LIG11       0.0804
     30 C          -5.8605    5.5411   -6.1222 C.3     1  LIG11       0.0804
     31 H          -6.8554    2.6352   -3.5334 H       1  LIG11       0.0834
     32 H          -9.9310    0.0034   -3.6986 H       1  LIG11       0.0621
     33 H          -8.3622    0.2261    0.0479 H       1  LIG11       0.0621
     34 H         -10.2434    2.9903   -0.6000 H       1  LIG11       0.0621
     35 H          -6.6979    0.1118   -3.9378 H       1  LIG11       0.0621
     36 H          -6.4627    3.3504    0.0553 H       1  LIG11       0.0524
     37 H          -5.9073    2.1625   -1.1288 H       1  LIG11       0.0524
     38 H          -6.4195    3.7938   -1.6449 H       1  LIG11       0.0524
     39 H         -12.3465   -0.4066   -3.5340 H       1  LIG11       0.0618
     40 H          -7.2912   -1.9375    0.5353 H       1  LIG11       0.0618
     41 H         -12.6533    2.5493   -0.4332 H       1  LIG11       0.0618
     42 H          -5.6839   -2.0377   -3.4452 H       1  LIG11       0.0618
     43 H         -13.7244    0.8489   -1.8925 H       1  LIG11       0.0618
     44 H          -5.9506   -3.0892   -1.2127 H       1  LIG11       0.0618
     45 H          -5.3719    2.6670   -8.8623 H       1  LIG11       0.0724
     46 H          -6.8860   -1.6127   -9.2736 H       1  LIG11       0.0660
     47 H          -6.7410   -1.3351   -7.5351 H       1  LIG11       0.0660
     48 H          -8.2011   -0.7735   -8.4410 H       1  LIG11       0.0660
     49 H          -5.3363    6.4781   -6.3348 H       1  LIG11       0.0660
     50 H          -6.9356    5.7523   -6.1322 H       1  LIG11       0.0660
     51 H          -5.5300    5.1930   -5.1374 H       1  LIG11       0.0660
@<TRIPOS>BOND
     1     1     9    1
     2     1    18    1
     3     2    10    1
     4     2    25    1
     5     3    17   ar
     6     4    17   ar
     7     5    26    1
     8     5    29    1
     9     6    27    1
    10     6    30    1
    11     7    25   ar
    12     7    26   ar
    13     8    25   ar
    14     8    27   ar
    15     9    10    1
    16     9    11    1
    17     9    12    1
    18    10    17    1
    19    11    13   ar
    20    11    15   ar
    21    12    14   ar
    22    12    16   ar
    23    13    19   ar
    24    14    20   ar
    25    15    21   ar
    26    16    22   ar
    27    19    23   ar
    28    20    24   ar
    29    21    23   ar
    30    22    24   ar
    31    26    28   ar
    32    27    28   ar
    33    10    31    1
    34    13    32    1
    35    14    33    1
    36    15    34    1
    37    16    35    1
    38    18    36    1
    39    18    37    1
    40    18    38    1
    41    19    39    1
    42    20    40    1
    43    21    41    1
    44    22    42    1
    45    23    43    1
    46    24    44    1
    47    28    45    1
    48    29    46    1
    49    29    47    1
    50    29    48    1
    51    30    49    1
    52    30    50    1
    53    30    51    1
@<TRIPOS>MOLECULE
../1EDN/PCA2_17-21.pdb
 47 48 0 0 0
SMALL
GASTEIGER

@<TRIPOS>ATOM
      1  N         -4.4680    0.3970   -1.5420 N.3    17  LEU17      -0.1231
      2  CA        -5.5730   -0.5090   -1.8150 C.3    17  LEU17       0.1693
      3  CB        -5.9860   -1.2020   -0.4580 C.3    17  LEU17       0.0284
      4  CG        -7.1280   -2.2100   -0.5390 C.3    17  LEU17       0.0019
      5  CD1       -6.7120   -3.3620   -1.4700 C.3    17  LEU17       0.0001
      6  CD2       -7.4980   -2.5610    0.9130 C.3    17  LEU17       0.0001
      7  C         -6.7000    0.2280   -2.5610 C.2    17  LEU17       0.2592
      8  O         -7.1860   -0.2780   -3.5510 O.2    17  LEU17      -0.2718
      9  N         -7.2650    1.2690   -1.9650 N.am   18  ASP18      -0.1960
     10  CA        -8.5260    1.8930   -2.2590 C.3    18  ASP18       0.1840
     11  CB        -9.6810    1.0560   -1.6740 C.3    18  ASP18       0.1450
     12  CG       -11.0010    1.6360   -2.1090 C.2    18  ASP18       0.3671
     13  OD1      -11.5960    2.3310   -1.2790 O.co2  18  ASP18      -0.2456
     14  OD2      -11.5460    1.2700   -3.1630 O.co2  18  ASP18      -0.2456
     15  C         -8.5570    3.3770   -1.7380 C.2    18  ASP18       0.2622
     16  O         -8.6960    4.2620   -2.5680 O.2    18  ASP18      -0.2715
     17  N         -8.4180    3.5730   -0.4160 N.am   19  ILE19      -0.1963
     18  CA        -8.3980    4.9040    0.1930 C.3    19  ILE19       0.1727
     19  CB        -8.4260    4.8620    1.7600 C.3    19  ILE19       0.0290
     20  CG2       -7.7310    6.0060    2.5190 C.3    19  ILE19       0.0023
     21  CG1       -9.9240    4.5740    2.2500 C.3    19  ILE19       0.0022
     22  CD1      -10.9740    5.6950    2.0110 C.3    19  ILE19       0.0001
     23  C         -7.1570    5.7010   -0.3260 C.2    19  ILE19       0.2616
     24  O         -7.3050    6.7970   -0.9200 O.2    19  ILE19      -0.2715
     25  N         -5.9900    5.0720   -0.2260 N.am   20  ILE20      -0.1963
     26  CA        -4.7520    5.3490   -0.9430 C.3    20  ILE20       0.1727
     27  CB        -3.5230    4.9310   -0.1080 C.3    20  ILE20       0.0290
     28  CG2       -2.1210    5.5060   -0.7390 C.3    20  ILE20       0.0023
     29  CG1       -3.5940    5.4760    1.3470 C.3    20  ILE20       0.0022
     30  CD1       -2.3570    5.1940    2.2260 C.3    20  ILE20       0.0001
     31  C         -4.7590    4.7050   -2.3650 C.2    20  ILE20       0.2617
     32  O         -4.2060    3.6200   -2.5900 O.2    20  ILE20      -0.2715
     33  N         -5.4060    5.3330   -3.3880 N.am   21  TRP21      -0.1938
     34  CA        -5.3950    4.7680   -4.7850 C.3    21  TRP21       0.2021
     35  CB        -6.6210    3.8650   -5.0310 C.3    21  TRP21       0.0612
     36  CG        -6.7890    3.3770   -6.4480 C.ar   21  TRP21       0.0007
     37  CD1       -7.1340    4.1960   -7.4760 C.ar   21  TRP21       0.0946
     38  NE1       -7.1740    3.4060   -8.6160 N.ar   21  TRP21      -0.2442
     39  CE2       -6.9360    2.0750   -8.3350 C.ar   21  TRP21       0.0810
     40  CZ2       -6.8300    1.0510   -9.2060 C.ar   21  TRP21       0.0191
     41  CH2       -6.3330   -0.2010   -8.7710 C.ar   21  TRP21       0.0015
     42  CZ3       -5.9560   -0.2520   -7.3640 C.ar   21  TRP21       0.0001
     43  CE3       -6.0150    0.8940   -6.5860 C.ar   21  TRP21       0.0012
     44  CD2       -6.6320    2.0560   -6.9830 C.ar   21  TRP21       0.0152
     45  C         -5.1960    5.8550   -5.8260 C.2    21  TRP21       0.3845
     46  O         -4.1840    5.6720   -6.5070 O.co2  21  TRP21      -0.2437
     47  OXT       -5.9640    6.8330   -6.0170 O.co2  21  TRP21      -0.2437
@<TRIPOS>BOND
     1    40    41   ar
     2    40    39   ar
     3    41    42   ar
     4    38    39   ar
     5    38    37   ar
     6    39    44   ar
     7    37    36   ar
     8    42    43   ar
     9    44    43   ar
    10    44    36   ar
    11    46    45   ar
    12    36    35    1
    13    47    45   ar
    14    45    34    1
    15    35    34    1
    16    34    33    1
    17     8     7    2
    18    33    31   am
    19    14    12   ar
    20    32    31    2
    21    16    15    2
    22     7     9   am
    23     7     2    1
    24    31    26    1
    25    10     9    1
    26    10    15    1
    27    10    11    1
    28    12    11    1
    29    12    13   ar
    30     2     1    1
    31     2     3    1
    32    15    17   am
    33     5     4    1
    34    26    25    1
    35    26    27    1
    36    24    23    2
    37    28    27    1
    38     4     3    1
    39     4     6    1
    40    17    18    1
    41    23    25   am
    42    23    18    1
    43    27    29    1
    44    18    19    1
    45    29    30    1
    46    19    21    1
    47    19    20    1
    48    22    21    1
