@<TRIPOS>MOLECULE
../1EDN/PCA2_17-21_NOBACKBONE.pdb
 26 23 0 0 0
SMALL
GASTEIGER

@<TRIPOS>ATOM
      1  CB        -5.9860   -1.2020   -0.4580 C.3    17  LEU17       0.0000
      2  CG        -7.1280   -2.2100   -0.5390 C.3    17  LEU17       0.0000
      3  CD1       -6.7120   -3.3620   -1.4700 C.3    17  LEU17       0.0000
      4  CD2       -7.4980   -2.5610    0.9130 C.3    17  LEU17       0.0000
      5  CB        -9.6810    1.0560   -1.6740 C.3    18  ASP18       0.1258
      6  CG       -11.0010    1.6360   -2.1090 C.2    18  ASP18       0.3654
      7  OD1      -11.5960    2.3310   -1.2790 O.co2  18  ASP18      -0.2456
      8  OD2      -11.5460    1.2700   -3.1630 O.co2  18  ASP18      -0.2456
      9  CB        -8.4260    4.8620    1.7600 C.3    19  ILE19       0.0000
     10  CG2       -7.7310    6.0060    2.5190 C.3    19  ILE19       0.0000
     11  CG1       -9.9240    4.5740    2.2500 C.3    19  ILE19       0.0000
     12  CD1      -10.9740    5.6950    2.0110 C.3    19  ILE19       0.0000
     13  CB        -3.5230    4.9310   -0.1080 C.3    20  ILE20       0.0000
     14  CG2       -2.1210    5.5060   -0.7390 C.3    20  ILE20       0.0000
     15  CG1       -3.5940    5.4760    1.3470 C.3    20  ILE20       0.0000
     16  CD1       -2.3570    5.1940    2.2260 C.3    20  ILE20       0.0000
     17  CB        -6.6210    3.8650   -5.0310 C.3    21  TRP21       0.0327
     18  CG        -6.7890    3.3770   -6.4480 C.ar   21  TRP21      -0.0013
     19  CD1       -7.1340    4.1960   -7.4760 C.ar   21  TRP21       0.0946
     20  NE1       -7.1740    3.4060   -8.6160 N.ar   21  TRP21      -0.2442
     21  CE2       -6.9360    2.0750   -8.3350 C.ar   21  TRP21       0.0810
     22  CZ2       -6.8300    1.0510   -9.2060 C.ar   21  TRP21       0.0191
     23  CH2       -6.3330   -0.2010   -8.7710 C.ar   21  TRP21       0.0015
     24  CZ3       -5.9560   -0.2520   -7.3640 C.ar   21  TRP21       0.0001
     25  CE3       -6.0150    0.8940   -6.5860 C.ar   21  TRP21       0.0012
     26  CD2       -6.6320    2.0560   -6.9830 C.ar   21  TRP21       0.0152
@<TRIPOS>BOND
     1    22    23   ar
     2    22    21   ar
     3    23    24   ar
     4    20    21   ar
     5    20    19   ar
     6    21    26   ar
     7    19    18   ar
     8    24    25   ar
     9    26    25   ar
    10    26    18   ar
    11    18    17    1
    12     8     6   ar
    13     6     5    1
    14     6     7   ar
    15     3     2    1
    16    14    13    1
    17     2     1    1
    18     2     4    1
    19    13    15    1
    20    15    16    1
    21     9    11    1
    22     9    10    1
    23    12    11    1
@<TRIPOS>MOLECULE
46174111
 44 47 0 0 0
SMALL
GASTEIGER

@<TRIPOS>ATOM
      1 CL         -5.5539    5.0867    1.7332 Cl      1  LIG11      -0.0762
      2 S          -5.0676    2.8477   -1.3890 S.O2    1  LIG11       0.0758
      3 S          -8.6041    2.7892   -3.7682 S.2     1  LIG11      -0.0918
      4 O          -5.5075   -0.2697   -7.4073 O.3     1  LIG11      -0.4526
      5 O          -6.8044    0.0085   -9.4211 O.3     1  LIG11      -0.4526
      6 O          -5.0266    4.3745   -3.9966 O.2     1  LIG11      -0.2911
      7 O          -4.1805    2.1498   -2.2940 O.2     1  LIG11      -0.1499
      8 O          -5.2818    2.3956   -0.0333 O.2     1  LIG11      -0.1499
      9 O          -2.4493    5.1101   -0.6065 O.2     1  LIG11      -0.3364
     10 N          -4.6855    4.4984   -1.4152 N.pl3   1  LIG11      -0.1821
     11 N          -1.8385    5.4704    0.5845 N.ar    1  LIG11      -0.0798
     12 C          -6.7160    3.1503   -6.7346 C.ar    1  LIG11      -0.0333
     13 C          -6.6507    4.2813   -5.7227 C.3     1  LIG11       0.0366
     14 C          -7.4472    3.3228   -7.9498 C.ar    1  LIG11      -0.0432
     15 C          -6.6294    2.6779   -2.1453 C.ar    1  LIG11       0.1261
     16 C          -6.9690    3.1740   -3.3976 C.ar    1  LIG11       0.0814
     17 C          -6.0138    1.9458   -6.5248 C.ar    1  LIG11      -0.0123
     18 C          -6.1372    3.9438   -4.3283 C.2     1  LIG11       0.1759
     19 C          -6.1067    0.9494   -7.4750 C.ar    1  LIG11       0.1665
     20 C          -6.8427    1.1060   -8.6203 C.ar    1  LIG11       0.1665
     21 C          -7.5200    2.2732   -8.8863 C.ar    1  LIG11      -0.0130
     22 C          -8.2027    4.5870   -8.2733 C.3     1  LIG11      -0.0393
     23 C          -7.7101    1.9847   -1.5126 C.ar    1  LIG11      -0.0273
     24 C          -5.9521   -0.8601   -8.6463 C.3     1  LIG11       0.2332
     25 C          -8.8428    1.9753   -2.2901 C.ar    1  LIG11      -0.0217
     26 C          -3.7683    4.8555   -0.3872 C.ar    1  LIG11       0.2554
     27 C          -4.0563    5.1094    0.9346 C.ar    1  LIG11       0.1262
     28 C          -2.8132    5.4697    1.5047 C.ar    1  LIG11       0.1009
     29 C          -2.5212    5.8483    2.9064 C.3     1  LIG11      -0.0176
     30 H          -4.2885    4.6619   -2.3539 H       1  LIG11       0.1768
     31 H          -5.9796    5.0475   -6.1336 H       1  LIG11       0.0394
     32 H          -7.6304    4.7592   -5.6087 H       1  LIG11       0.0394
     33 H          -5.4005    1.7682   -5.6464 H       1  LIG11       0.0658
     34 H          -8.0876    2.3728   -9.8062 H       1  LIG11       0.0658
     35 H          -7.7677    5.4650   -7.7885 H       1  LIG11       0.0278
     36 H          -9.2471    4.4867   -7.9624 H       1  LIG11       0.0278
     37 H          -8.1722    4.7859   -9.3505 H       1  LIG11       0.0278
     38 H          -7.6554    1.5192   -0.5337 H       1  LIG11       0.0643
     39 H          -6.5035   -1.7799   -8.4194 H       1  LIG11       0.1166
     40 H          -5.0730   -1.1166   -9.2485 H       1  LIG11       0.1166
     41 H          -9.7999    1.5271   -2.0576 H       1  LIG11       0.0694
     42 H          -1.4449    5.9398    3.0846 H       1  LIG11       0.0294
     43 H          -2.9116    5.0948    3.5982 H       1  LIG11       0.0294
     44 H          -2.9873    6.8098    3.1456 H       1  LIG11       0.0294
@<TRIPOS>BOND
     1     1    27    1
     2     2    10    1
     3     2    15    1
     4     2     8    2
     5     2     7    2
     6     3    16   ar
     7     3    25   ar
     8     4    24    1
     9     4    19    1
    10     5    20    1
    11     5    24    1
    12     6    18    2
    13     9    11   ar
    14     9    26   ar
    15    10    26    1
    16    11    28   ar
    17    12    17   ar
    18    12    14   ar
    19    13    18    1
    20    13    12    1
    21    14    21   ar
    22    14    22    1
    23    15    23   ar
    24    15    16   ar
    25    16    18    1
    26    17    19   ar
    27    19    20   ar
    28    20    21   ar
    29    23    25   ar
    30    26    27   ar
    31    27    28   ar
    32    28    29    1
    33    10    30    1
    34    13    31    1
    35    13    32    1
    36    17    33    1
    37    21    34    1
    38    22    35    1
    39    22    36    1
    40    22    37    1
    41    23    38    1
    42    24    39    1
    43    24    40    1
    44    25    41    1
    45    29    42    1
    46    29    43    1
    47    29    44    1
@<TRIPOS>MOLECULE
../1EDN/PCA2_17-21.pdb
 47 48 0 0 0
SMALL
GASTEIGER

@<TRIPOS>ATOM
      1  N         -4.4680    0.3970   -1.5420 N.3    17  LEU17      -0.1231
      2  CA        -5.5730   -0.5090   -1.8150 C.3    17  LEU17       0.1693
      3  CB        -5.9860   -1.2020   -0.4580 C.3    17  LEU17       0.0284
      4  CG        -7.1280   -2.2100   -0.5390 C.3    17  LEU17       0.0019
      5  CD1       -6.7120   -3.3620   -1.4700 C.3    17  LEU17       0.0001
      6  CD2       -7.4980   -2.5610    0.9130 C.3    17  LEU17       0.0001
      7  C         -6.7000    0.2280   -2.5610 C.2    17  LEU17       0.2592
      8  O         -7.1860   -0.2780   -3.5510 O.2    17  LEU17      -0.2718
      9  N         -7.2650    1.2690   -1.9650 N.am   18  ASP18      -0.1960
     10  CA        -8.5260    1.8930   -2.2590 C.3    18  ASP18       0.1840
     11  CB        -9.6810    1.0560   -1.6740 C.3    18  ASP18       0.1450
     12  CG       -11.0010    1.6360   -2.1090 C.2    18  ASP18       0.3671
     13  OD1      -11.5960    2.3310   -1.2790 O.co2  18  ASP18      -0.2456
     14  OD2      -11.5460    1.2700   -3.1630 O.co2  18  ASP18      -0.2456
     15  C         -8.5570    3.3770   -1.7380 C.2    18  ASP18       0.2622
     16  O         -8.6960    4.2620   -2.5680 O.2    18  ASP18      -0.2715
     17  N         -8.4180    3.5730   -0.4160 N.am   19  ILE19      -0.1963
     18  CA        -8.3980    4.9040    0.1930 C.3    19  ILE19       0.1727
     19  CB        -8.4260    4.8620    1.7600 C.3    19  ILE19       0.0290
     20  CG2       -7.7310    6.0060    2.5190 C.3    19  ILE19       0.0023
     21  CG1       -9.9240    4.5740    2.2500 C.3    19  ILE19       0.0022
     22  CD1      -10.9740    5.6950    2.0110 C.3    19  ILE19       0.0001
     23  C         -7.1570    5.7010   -0.3260 C.2    19  ILE19       0.2616
     24  O         -7.3050    6.7970   -0.9200 O.2    19  ILE19      -0.2715
     25  N         -5.9900    5.0720   -0.2260 N.am   20  ILE20      -0.1963
     26  CA        -4.7520    5.3490   -0.9430 C.3    20  ILE20       0.1727
     27  CB        -3.5230    4.9310   -0.1080 C.3    20  ILE20       0.0290
     28  CG2       -2.1210    5.5060   -0.7390 C.3    20  ILE20       0.0023
     29  CG1       -3.5940    5.4760    1.3470 C.3    20  ILE20       0.0022
     30  CD1       -2.3570    5.1940    2.2260 C.3    20  ILE20       0.0001
     31  C         -4.7590    4.7050   -2.3650 C.2    20  ILE20       0.2617
     32  O         -4.2060    3.6200   -2.5900 O.2    20  ILE20      -0.2715
     33  N         -5.4060    5.3330   -3.3880 N.am   21  TRP21      -0.1938
     34  CA        -5.3950    4.7680   -4.7850 C.3    21  TRP21       0.2021
     35  CB        -6.6210    3.8650   -5.0310 C.3    21  TRP21       0.0612
     36  CG        -6.7890    3.3770   -6.4480 C.ar   21  TRP21       0.0007
     37  CD1       -7.1340    4.1960   -7.4760 C.ar   21  TRP21       0.0946
     38  NE1       -7.1740    3.4060   -8.6160 N.ar   21  TRP21      -0.2442
     39  CE2       -6.9360    2.0750   -8.3350 C.ar   21  TRP21       0.0810
     40  CZ2       -6.8300    1.0510   -9.2060 C.ar   21  TRP21       0.0191
     41  CH2       -6.3330   -0.2010   -8.7710 C.ar   21  TRP21       0.0015
     42  CZ3       -5.9560   -0.2520   -7.3640 C.ar   21  TRP21       0.0001
     43  CE3       -6.0150    0.8940   -6.5860 C.ar   21  TRP21       0.0012
     44  CD2       -6.6320    2.0560   -6.9830 C.ar   21  TRP21       0.0152
     45  C         -5.1960    5.8550   -5.8260 C.2    21  TRP21       0.3845
     46  O         -4.1840    5.6720   -6.5070 O.co2  21  TRP21      -0.2437
     47  OXT       -5.9640    6.8330   -6.0170 O.co2  21  TRP21      -0.2437
@<TRIPOS>BOND
     1    40    41   ar
     2    40    39   ar
     3    41    42   ar
     4    38    39   ar
     5    38    37   ar
     6    39    44   ar
     7    37    36   ar
     8    42    43   ar
     9    44    43   ar
    10    44    36   ar
    11    46    45   ar
    12    36    35    1
    13    47    45   ar
    14    45    34    1
    15    35    34    1
    16    34    33    1
    17     8     7    2
    18    33    31   am
    19    14    12   ar
    20    32    31    2
    21    16    15    2
    22     7     9   am
    23     7     2    1
    24    31    26    1
    25    10     9    1
    26    10    15    1
    27    10    11    1
    28    12    11    1
    29    12    13   ar
    30     2     1    1
    31     2     3    1
    32    15    17   am
    33     5     4    1
    34    26    25    1
    35    26    27    1
    36    24    23    2
    37    28    27    1
    38     4     3    1
    39     4     6    1
    40    17    18    1
    41    23    25   am
    42    23    18    1
    43    27    29    1
    44    18    19    1
    45    29    30    1
    46    19    21    1
    47    19    20    1
    48    22    21    1
