@<TRIPOS>MOLECULE
../1EDN/PCA2_17-21_NOBACKBONE.pdb
 26 23 0 0 0
SMALL
GASTEIGER

@<TRIPOS>ATOM
      1  CB        -5.9860   -1.2020   -0.4580 C.3    17  LEU17       0.0000
      2  CG        -7.1280   -2.2100   -0.5390 C.3    17  LEU17       0.0000
      3  CD1       -6.7120   -3.3620   -1.4700 C.3    17  LEU17       0.0000
      4  CD2       -7.4980   -2.5610    0.9130 C.3    17  LEU17       0.0000
      5  CB        -9.6810    1.0560   -1.6740 C.3    18  ASP18       0.1258
      6  CG       -11.0010    1.6360   -2.1090 C.2    18  ASP18       0.3654
      7  OD1      -11.5960    2.3310   -1.2790 O.co2  18  ASP18      -0.2456
      8  OD2      -11.5460    1.2700   -3.1630 O.co2  18  ASP18      -0.2456
      9  CB        -8.4260    4.8620    1.7600 C.3    19  ILE19       0.0000
     10  CG2       -7.7310    6.0060    2.5190 C.3    19  ILE19       0.0000
     11  CG1       -9.9240    4.5740    2.2500 C.3    19  ILE19       0.0000
     12  CD1      -10.9740    5.6950    2.0110 C.3    19  ILE19       0.0000
     13  CB        -3.5230    4.9310   -0.1080 C.3    20  ILE20       0.0000
     14  CG2       -2.1210    5.5060   -0.7390 C.3    20  ILE20       0.0000
     15  CG1       -3.5940    5.4760    1.3470 C.3    20  ILE20       0.0000
     16  CD1       -2.3570    5.1940    2.2260 C.3    20  ILE20       0.0000
     17  CB        -6.6210    3.8650   -5.0310 C.3    21  TRP21       0.0327
     18  CG        -6.7890    3.3770   -6.4480 C.ar   21  TRP21      -0.0013
     19  CD1       -7.1340    4.1960   -7.4760 C.ar   21  TRP21       0.0946
     20  NE1       -7.1740    3.4060   -8.6160 N.ar   21  TRP21      -0.2442
     21  CE2       -6.9360    2.0750   -8.3350 C.ar   21  TRP21       0.0810
     22  CZ2       -6.8300    1.0510   -9.2060 C.ar   21  TRP21       0.0191
     23  CH2       -6.3330   -0.2010   -8.7710 C.ar   21  TRP21       0.0015
     24  CZ3       -5.9560   -0.2520   -7.3640 C.ar   21  TRP21       0.0001
     25  CE3       -6.0150    0.8940   -6.5860 C.ar   21  TRP21       0.0012
     26  CD2       -6.6320    2.0560   -6.9830 C.ar   21  TRP21       0.0152
@<TRIPOS>BOND
     1    22    23   ar
     2    22    21   ar
     3    23    24   ar
     4    20    21   ar
     5    20    19   ar
     6    21    26   ar
     7    19    18   ar
     8    24    25   ar
     9    26    25   ar
    10    26    18   ar
    11    18    17    1
    12     8     6   ar
    13     6     5    1
    14     6     7   ar
    15     3     2    1
    16    14    13    1
    17     2     1    1
    18     2     4    1
    19    13    15    1
    20    15    16    1
    21     9    11    1
    22     9    10    1
    23    12    11    1
@<TRIPOS>MOLECULE
178103
 66 70 0 0 0
SMALL
GASTEIGER

@<TRIPOS>ATOM
      1 O         -10.5329    1.7282   -3.6096 O.co2   1  LIG11      -0.5495
      2 O         -10.0094    3.9062   -3.1984 O.co2   1  LIG11      -0.5495
      3 O          -3.3748    4.4367   -0.6547 O.3     1  LIG11      -0.4920
      4 O          -8.3286    2.3268    0.7502 O.3     1  LIG11      -0.4893
      5 O          -5.8936   -0.1189   -7.6558 O.3     1  LIG11      -0.4526
      6 O          -6.3195    1.3403   -9.5301 O.3     1  LIG11      -0.4526
      7 O          -7.4666   -2.3687    1.0459 O.3     1  LIG11      -0.4950
      8 O          -9.8477    4.3195    2.1610 O.3     1  LIG11      -0.3917
      9 C          -8.2606    2.3140   -3.4358 C.3     1  LIG11       0.0203
     10 C          -7.7132    2.4736   -1.9888 C.3     1  LIG11       0.0218
     11 C          -7.4751    3.2851   -4.3492 C.3     1  LIG11       0.0184
     12 C          -6.3692    3.1321   -2.2205 C.ar    1  LIG11      -0.0320
     13 C          -6.2288    3.5634   -3.5398 C.ar    1  LIG11      -0.0353
     14 C          -7.6082    1.1754   -1.1841 C.ar    1  LIG11       0.0025
     15 C          -7.1781    2.7607   -5.7500 C.ar    1  LIG11      -0.0356
     16 C          -9.7394    2.6914   -3.4094 C.2     1  LIG11       0.0466
     17 C          -5.3908    3.4218   -1.2745 C.ar    1  LIG11      -0.0159
     18 C          -5.0953    4.2596   -3.9414 C.ar    1  LIG11      -0.0542
     19 C          -7.9447    1.1386    0.1851 C.ar    1  LIG11       0.1278
     20 C          -4.2631    4.1517   -1.6599 C.ar    1  LIG11       0.1208
     21 C          -6.6376    1.4813   -5.9717 C.ar    1  LIG11      -0.0124
     22 C          -4.1034    4.5412   -2.9976 C.ar    1  LIG11      -0.0196
     23 C          -7.4171    3.6048   -6.8632 C.ar    1  LIG11      -0.0543
     24 C          -7.1254   -0.0043   -1.7786 C.ar    1  LIG11      -0.0510
     25 C          -6.3914    1.0881   -7.2711 C.ar    1  LIG11       0.1665
     26 C          -7.1397    3.1870   -8.1693 C.ar    1  LIG11      -0.0159
     27 C          -7.8803   -0.0715    0.8891 C.ar    1  LIG11       0.0221
     28 C          -7.0606   -1.2064   -1.0690 C.ar    1  LIG11      -0.0194
     29 C          -6.6345    1.9181   -8.3394 C.ar    1  LIG11       0.1662
     30 C          -7.4675   -1.2475    0.2593 C.ar    1  LIG11       0.1236
     31 C          -2.6157    5.6333   -0.8387 C.3     1  LIG11       0.0893
     32 C          -5.9202    0.0266   -9.0885 C.3     1  LIG11       0.2332
     33 C          -8.3629    2.3994    2.1760 C.3     1  LIG11       0.1126
     34 C          -2.0508    6.0476    0.5173 C.3     1  LIG11      -0.0215
     35 C          -8.5559    3.8639    2.5577 C.3     1  LIG11       0.0783
     36 C          -7.6678   -3.5916    0.3437 C.3     1  LIG11       0.0788
     37 C          -1.2232    7.3171    0.4192 C.3     1  LIG11      -0.0622
     38 H          -9.9258    4.1107    1.2060 H       1  LIG11       0.2095
     39 H          -8.1939    1.2844   -3.7981 H       1  LIG11       0.0379
     40 H          -8.3299    3.1958   -1.4396 H       1  LIG11       0.0405
     41 H          -7.9999    4.2442   -4.4469 H       1  LIG11       0.0404
     42 H          -5.5225    3.1235   -0.2395 H       1  LIG11       0.0657
     43 H          -4.9912    4.6015   -4.9661 H       1  LIG11       0.0622
     44 H          -6.4227    0.8082   -5.1500 H       1  LIG11       0.0658
     45 H          -3.2224    5.0804   -3.3273 H       1  LIG11       0.0654
     46 H          -7.8327    4.5985   -6.7034 H       1  LIG11       0.0622
     47 H          -6.7961   -0.0018   -2.8140 H       1  LIG11       0.0623
     48 H          -7.3284    3.8357   -9.0161 H       1  LIG11       0.0655
     49 H          -8.1743   -0.1361    1.9306 H       1  LIG11       0.0691
     50 H          -6.6877   -2.0850   -1.5816 H       1  LIG11       0.0654
     51 H          -1.7933    5.4394   -1.5367 H       1  LIG11       0.0696
     52 H          -3.2470    6.4439   -1.2248 H       1  LIG11       0.0696
     53 H          -4.9175   -0.1829   -9.4791 H       1  LIG11       0.1166
     54 H          -6.6174   -0.7098   -9.5052 H       1  LIG11       0.1166
     55 H          -9.2073    1.8087    2.5498 H       1  LIG11       0.0720
     56 H          -7.4180    2.0432    2.6021 H       1  LIG11       0.0720
     57 H          -2.8746    6.1954    1.2269 H       1  LIG11       0.0295
     58 H          -1.4410    5.2337    0.9271 H       1  LIG11       0.0295
     59 H          -7.8115    4.5004    2.0699 H       1  LIG11       0.0591
     60 H          -8.4757    3.9898    3.6410 H       1  LIG11       0.0591
     61 H          -7.8974   -4.3653    1.0823 H       1  LIG11       0.0660
     62 H          -8.5167   -3.5274   -0.3455 H       1  LIG11       0.0660
     63 H          -6.7566   -3.8934   -0.1810 H       1  LIG11       0.0660
     64 H          -1.8253    8.1494    0.0413 H       1  LIG11       0.0231
     65 H          -0.8388    7.5967    1.4045 H       1  LIG11       0.0231
     66 H          -0.3703    7.1776   -0.2520 H       1  LIG11       0.0231
@<TRIPOS>BOND
     1     1    16   ar
     2     2    16   ar
     3     3    20    1
     4     3    31    1
     5     4    19    1
     6     4    33    1
     7     5    25    1
     8     5    32    1
     9     6    29    1
    10     6    32    1
    11     7    30    1
    12     7    36    1
    13     8    35    1
    14     9    10    1
    15     9    11    1
    16     9    16    1
    17    10    12    1
    18    10    14    1
    19    11    13    1
    20    11    15    1
    21    12    13   ar
    22    12    17   ar
    23    13    18   ar
    24    14    19   ar
    25    14    24   ar
    26    15    21   ar
    27    15    23   ar
    28    17    20   ar
    29    18    22   ar
    30    19    27   ar
    31    20    22   ar
    32    21    25   ar
    33    23    26   ar
    34    24    28   ar
    35    25    29   ar
    36    26    29   ar
    37    27    30   ar
    38    28    30   ar
    39    31    34    1
    40    33    35    1
    41    34    37    1
    42     8    38    1
    43     9    39    1
    44    10    40    1
    45    11    41    1
    46    17    42    1
    47    18    43    1
    48    21    44    1
    49    22    45    1
    50    23    46    1
    51    24    47    1
    52    26    48    1
    53    27    49    1
    54    28    50    1
    55    31    51    1
    56    31    52    1
    57    32    53    1
    58    32    54    1
    59    33    55    1
    60    33    56    1
    61    34    57    1
    62    34    58    1
    63    35    59    1
    64    35    60    1
    65    36    61    1
    66    36    62    1
    67    36    63    1
    68    37    64    1
    69    37    65    1
    70    37    66    1
@<TRIPOS>MOLECULE
../1EDN/PCA2_17-21.pdb
 47 48 0 0 0
SMALL
GASTEIGER

@<TRIPOS>ATOM
      1  N         -4.4680    0.3970   -1.5420 N.3    17  LEU17      -0.1231
      2  CA        -5.5730   -0.5090   -1.8150 C.3    17  LEU17       0.1693
      3  CB        -5.9860   -1.2020   -0.4580 C.3    17  LEU17       0.0284
      4  CG        -7.1280   -2.2100   -0.5390 C.3    17  LEU17       0.0019
      5  CD1       -6.7120   -3.3620   -1.4700 C.3    17  LEU17       0.0001
      6  CD2       -7.4980   -2.5610    0.9130 C.3    17  LEU17       0.0001
      7  C         -6.7000    0.2280   -2.5610 C.2    17  LEU17       0.2592
      8  O         -7.1860   -0.2780   -3.5510 O.2    17  LEU17      -0.2718
      9  N         -7.2650    1.2690   -1.9650 N.am   18  ASP18      -0.1960
     10  CA        -8.5260    1.8930   -2.2590 C.3    18  ASP18       0.1840
     11  CB        -9.6810    1.0560   -1.6740 C.3    18  ASP18       0.1450
     12  CG       -11.0010    1.6360   -2.1090 C.2    18  ASP18       0.3671
     13  OD1      -11.5960    2.3310   -1.2790 O.co2  18  ASP18      -0.2456
     14  OD2      -11.5460    1.2700   -3.1630 O.co2  18  ASP18      -0.2456
     15  C         -8.5570    3.3770   -1.7380 C.2    18  ASP18       0.2622
     16  O         -8.6960    4.2620   -2.5680 O.2    18  ASP18      -0.2715
     17  N         -8.4180    3.5730   -0.4160 N.am   19  ILE19      -0.1963
     18  CA        -8.3980    4.9040    0.1930 C.3    19  ILE19       0.1727
     19  CB        -8.4260    4.8620    1.7600 C.3    19  ILE19       0.0290
     20  CG2       -7.7310    6.0060    2.5190 C.3    19  ILE19       0.0023
     21  CG1       -9.9240    4.5740    2.2500 C.3    19  ILE19       0.0022
     22  CD1      -10.9740    5.6950    2.0110 C.3    19  ILE19       0.0001
     23  C         -7.1570    5.7010   -0.3260 C.2    19  ILE19       0.2616
     24  O         -7.3050    6.7970   -0.9200 O.2    19  ILE19      -0.2715
     25  N         -5.9900    5.0720   -0.2260 N.am   20  ILE20      -0.1963
     26  CA        -4.7520    5.3490   -0.9430 C.3    20  ILE20       0.1727
     27  CB        -3.5230    4.9310   -0.1080 C.3    20  ILE20       0.0290
     28  CG2       -2.1210    5.5060   -0.7390 C.3    20  ILE20       0.0023
     29  CG1       -3.5940    5.4760    1.3470 C.3    20  ILE20       0.0022
     30  CD1       -2.3570    5.1940    2.2260 C.3    20  ILE20       0.0001
     31  C         -4.7590    4.7050   -2.3650 C.2    20  ILE20       0.2617
     32  O         -4.2060    3.6200   -2.5900 O.2    20  ILE20      -0.2715
     33  N         -5.4060    5.3330   -3.3880 N.am   21  TRP21      -0.1938
     34  CA        -5.3950    4.7680   -4.7850 C.3    21  TRP21       0.2021
     35  CB        -6.6210    3.8650   -5.0310 C.3    21  TRP21       0.0612
     36  CG        -6.7890    3.3770   -6.4480 C.ar   21  TRP21       0.0007
     37  CD1       -7.1340    4.1960   -7.4760 C.ar   21  TRP21       0.0946
     38  NE1       -7.1740    3.4060   -8.6160 N.ar   21  TRP21      -0.2442
     39  CE2       -6.9360    2.0750   -8.3350 C.ar   21  TRP21       0.0810
     40  CZ2       -6.8300    1.0510   -9.2060 C.ar   21  TRP21       0.0191
     41  CH2       -6.3330   -0.2010   -8.7710 C.ar   21  TRP21       0.0015
     42  CZ3       -5.9560   -0.2520   -7.3640 C.ar   21  TRP21       0.0001
     43  CE3       -6.0150    0.8940   -6.5860 C.ar   21  TRP21       0.0012
     44  CD2       -6.6320    2.0560   -6.9830 C.ar   21  TRP21       0.0152
     45  C         -5.1960    5.8550   -5.8260 C.2    21  TRP21       0.3845
     46  O         -4.1840    5.6720   -6.5070 O.co2  21  TRP21      -0.2437
     47  OXT       -5.9640    6.8330   -6.0170 O.co2  21  TRP21      -0.2437
@<TRIPOS>BOND
     1    40    41   ar
     2    40    39   ar
     3    41    42   ar
     4    38    39   ar
     5    38    37   ar
     6    39    44   ar
     7    37    36   ar
     8    42    43   ar
     9    44    43   ar
    10    44    36   ar
    11    46    45   ar
    12    36    35    1
    13    47    45   ar
    14    45    34    1
    15    35    34    1
    16    34    33    1
    17     8     7    2
    18    33    31   am
    19    14    12   ar
    20    32    31    2
    21    16    15    2
    22     7     9   am
    23     7     2    1
    24    31    26    1
    25    10     9    1
    26    10    15    1
    27    10    11    1
    28    12    11    1
    29    12    13   ar
    30     2     1    1
    31     2     3    1
    32    15    17   am
    33     5     4    1
    34    26    25    1
    35    26    27    1
    36    24    23    2
    37    28    27    1
    38     4     3    1
    39     4     6    1
    40    17    18    1
    41    23    25   am
    42    23    18    1
    43    27    29    1
    44    18    19    1
    45    29    30    1
    46    19    21    1
    47    19    20    1
    48    22    21    1
