@<TRIPOS>MOLECULE
../1EDN/PCA2_17-21_NOBACKBONE.pdb
 26 23 0 0 0
SMALL
GASTEIGER

@<TRIPOS>ATOM
      1  CB        -5.9860   -1.2020   -0.4580 C.3    17  LEU17       0.0000
      2  CG        -7.1280   -2.2100   -0.5390 C.3    17  LEU17       0.0000
      3  CD1       -6.7120   -3.3620   -1.4700 C.3    17  LEU17       0.0000
      4  CD2       -7.4980   -2.5610    0.9130 C.3    17  LEU17       0.0000
      5  CB        -9.6810    1.0560   -1.6740 C.3    18  ASP18       0.1258
      6  CG       -11.0010    1.6360   -2.1090 C.2    18  ASP18       0.3654
      7  OD1      -11.5960    2.3310   -1.2790 O.co2  18  ASP18      -0.2456
      8  OD2      -11.5460    1.2700   -3.1630 O.co2  18  ASP18      -0.2456
      9  CB        -8.4260    4.8620    1.7600 C.3    19  ILE19       0.0000
     10  CG2       -7.7310    6.0060    2.5190 C.3    19  ILE19       0.0000
     11  CG1       -9.9240    4.5740    2.2500 C.3    19  ILE19       0.0000
     12  CD1      -10.9740    5.6950    2.0110 C.3    19  ILE19       0.0000
     13  CB        -3.5230    4.9310   -0.1080 C.3    20  ILE20       0.0000
     14  CG2       -2.1210    5.5060   -0.7390 C.3    20  ILE20       0.0000
     15  CG1       -3.5940    5.4760    1.3470 C.3    20  ILE20       0.0000
     16  CD1       -2.3570    5.1940    2.2260 C.3    20  ILE20       0.0000
     17  CB        -6.6210    3.8650   -5.0310 C.3    21  TRP21       0.0327
     18  CG        -6.7890    3.3770   -6.4480 C.ar   21  TRP21      -0.0013
     19  CD1       -7.1340    4.1960   -7.4760 C.ar   21  TRP21       0.0946
     20  NE1       -7.1740    3.4060   -8.6160 N.ar   21  TRP21      -0.2442
     21  CE2       -6.9360    2.0750   -8.3350 C.ar   21  TRP21       0.0810
     22  CZ2       -6.8300    1.0510   -9.2060 C.ar   21  TRP21       0.0191
     23  CH2       -6.3330   -0.2010   -8.7710 C.ar   21  TRP21       0.0015
     24  CZ3       -5.9560   -0.2520   -7.3640 C.ar   21  TRP21       0.0001
     25  CE3       -6.0150    0.8940   -6.5860 C.ar   21  TRP21       0.0012
     26  CD2       -6.6320    2.0560   -6.9830 C.ar   21  TRP21       0.0152
@<TRIPOS>BOND
     1    22    23   ar
     2    22    21   ar
     3    23    24   ar
     4    20    21   ar
     5    20    19   ar
     6    21    26   ar
     7    19    18   ar
     8    24    25   ar
     9    26    25   ar
    10    26    18   ar
    11    18    17    1
    12     8     6   ar
    13     6     5    1
    14     6     7   ar
    15     3     2    1
    16    14    13    1
    17     2     1    1
    18     2     4    1
    19    13    15    1
    20    15    16    1
    21     9    11    1
    22     9    10    1
    23    12    11    1
@<TRIPOS>MOLECULE
01012527H
 86 88 0 0 0
SMALL
GASTEIGER

@<TRIPOS>ATOM
      1 C          -6.7755    0.3335   -2.7530 C.3     1  LIG11       0.0531
      2 C          -7.2885    1.4264   -1.8277 C.3     1  LIG11      -0.0111
      3 C          -5.5478    0.8530   -3.4891 C.3     1  LIG11       0.0375
      4 C          -6.4684   -0.7338   -1.7064 C.2     1  LIG11       0.0509
      5 N          -6.0808    2.4034   -1.6830 N.4     1  LIG11       0.2448
      6 C          -8.4800    2.2805   -2.3188 C.3     1  LIG11      -0.0039
      7 C          -5.9169    1.3264   -4.8944 C.ar    1  LIG11      -0.0313
      8 C          -4.9341    1.8717   -2.5419 C.3     1  LIG11      -0.0234
      9 O          -7.4540   -1.4375   -1.3812 O.co2   1  LIG11      -0.5493
     10 O          -5.3083   -0.6759   -1.2162 O.co2   1  LIG11      -0.5493
     11 C          -5.6453    2.5520   -0.2257 C.3     1  LIG11       0.0465
     12 C          -9.9183    1.6598   -2.3566 C.3     1  LIG11      -0.0298
     13 C          -6.3422    2.6218   -5.2029 C.ar    1  LIG11      -0.0122
     14 C          -5.8905    0.3609   -5.9322 C.ar    1  LIG11      -0.0124
     15 C          -4.5357    3.6047   -0.0415 C.2     1  LIG11       0.2608
     16 C         -10.0553    0.6533   -3.5303 C.3     1  LIG11      -0.0479
     17 C         -10.2575    0.9787   -1.0213 C.3     1  LIG11      -0.0596
     18 C         -10.9031    2.8389   -2.5525 C.3     1  LIG11      -0.0596
     19 C          -6.7711    2.8777   -6.4927 C.ar    1  LIG11       0.1702
     20 C          -6.2908    0.6503   -7.2428 C.ar    1  LIG11       0.1656
     21 N          -4.8439    4.8278    0.5624 N.am    1  LIG11      -0.2971
     22 O          -3.4112    3.3886   -0.5019 O.2     1  LIG11      -0.2697
     23 C         -11.4755    0.1989   -3.8948 C.3     1  LIG11      -0.0554
     24 C          -6.7528    1.9273   -7.4920 C.ar    1  LIG11       0.2075
     25 O          -7.2766    4.0738   -6.9086 O.3     1  LIG11      -0.4525
     26 O          -6.1864   -0.4002   -8.1092 O.3     1  LIG11      -0.4913
     27 C          -6.2082    5.3188    0.7932 C.3     1  LIG11       0.0148
     28 C          -3.7352    5.7677    0.7934 C.3     1  LIG11       0.0148
     29 C         -11.4483   -0.7773   -5.0630 C.3     1  LIG11      -0.0653
     30 O          -7.2429    2.4297   -8.6618 O.3     1  LIG11      -0.4489
     31 C          -7.6379    3.7536   -8.2666 C.3     1  LIG11       0.2334
     32 C          -6.5414   -0.1674   -9.4644 C.3     1  LIG11       0.0790
     33 C          -6.7403    4.9625    2.1781 C.3     1  LIG11      -0.0374
     34 C          -2.7299    5.3240    1.8632 C.3     1  LIG11      -0.0374
     35 C          -8.1909    5.4040    2.3833 C.3     1  LIG11      -0.0545
     36 C          -3.3306    5.2760    3.2676 C.3     1  LIG11      -0.0545
     37 C          -8.3299    6.9097    2.5544 C.3     1  LIG11      -0.0652
     38 C          -2.2717    5.0272    4.3302 C.3     1  LIG11      -0.0652
     39 H          -7.5110   -0.0778   -3.4429 H       1  LIG11       0.0424
     40 H          -7.5217    1.0919   -0.8108 H       1  LIG11       0.0858
     41 H          -4.7997    0.0604   -3.6306 H       1  LIG11       0.0409
     42 H          -6.3300    3.3254   -2.0420 H       1  LIG11       0.2042
     43 H          -8.2623    2.6978   -3.3056 H       1  LIG11       0.0325
     44 H          -8.5292    3.1501   -1.6461 H       1  LIG11       0.0325
     45 H          -4.4668    2.7288   -3.0377 H       1  LIG11       0.0821
     46 H          -4.1983    1.3996   -1.8854 H       1  LIG11       0.0821
     47 H          -5.2730    1.5837    0.1301 H       1  LIG11       0.0913
     48 H          -6.5424    2.7943    0.3448 H       1  LIG11       0.0913
     49 H          -6.3871    3.4193   -4.4701 H       1  LIG11       0.0658
     50 H          -5.5605   -0.6542   -5.7109 H       1  LIG11       0.0658
     51 H          -9.4936   -0.2546   -3.2878 H       1  LIG11       0.0270
     52 H          -9.5924    1.0853   -4.4301 H       1  LIG11       0.0270
     53 H         -10.0742    1.6525   -0.1766 H       1  LIG11       0.0235
     54 H          -9.6619    0.0749   -0.8656 H       1  LIG11       0.0235
     55 H         -11.3119    0.6820   -0.9781 H       1  LIG11       0.0235
     56 H         -10.7683    3.6004   -1.7758 H       1  LIG11       0.0235
     57 H         -11.9472    2.5147   -2.4916 H       1  LIG11       0.0235
     58 H         -10.7521    3.3224   -3.5233 H       1  LIG11       0.0235
     59 H         -12.0952    1.0544   -4.1801 H       1  LIG11       0.0263
     60 H         -11.9483   -0.2847   -3.0358 H       1  LIG11       0.0263
     61 H          -6.8601    4.9035    0.0236 H       1  LIG11       0.0464
     62 H          -6.2116    6.3976    0.6390 H       1  LIG11       0.0464
     63 H          -4.1370    6.7479    1.0532 H       1  LIG11       0.0464
     64 H          -3.2057    5.8833   -0.1577 H       1  LIG11       0.0464
     65 H         -11.0396   -0.3006   -5.9582 H       1  LIG11       0.0230
     66 H         -12.4580   -1.1195   -5.2947 H       1  LIG11       0.0230
     67 H         -10.8386   -1.6521   -4.8316 H       1  LIG11       0.0230
     68 H          -7.1658    4.4778   -8.9359 H       1  LIG11       0.1166
     69 H          -8.7262    3.8345   -8.3679 H       1  LIG11       0.1166
     70 H          -6.3503   -1.0928  -10.0168 H       1  LIG11       0.0660
     71 H          -5.9186    0.6136   -9.9133 H       1  LIG11       0.0660
     72 H          -7.6083    0.0562   -9.5578 H       1  LIG11       0.0660
     73 H          -6.1172    5.4178    2.9560 H       1  LIG11       0.0280
     74 H          -6.6824    3.8758    2.3330 H       1  LIG11       0.0280
     75 H          -1.8975    6.0365    1.8570 H       1  LIG11       0.0280
     76 H          -2.3045    4.3442    1.6209 H       1  LIG11       0.0280
     77 H          -8.5840    4.9181    3.2840 H       1  LIG11       0.0263
     78 H          -8.8136    5.0684    1.5437 H       1  LIG11       0.0263
     79 H          -4.0732    4.4736    3.3266 H       1  LIG11       0.0263
     80 H          -3.8406    6.2214    3.4903 H       1  LIG11       0.0263
     81 H          -7.7227    7.2635    3.3971 H       1  LIG11       0.0230
     82 H          -9.3725    7.1749    2.7538 H       1  LIG11       0.0230
     83 H          -8.0119    7.4495    1.6538 H       1  LIG11       0.0230
     84 H          -1.7680    4.0710    4.1658 H       1  LIG11       0.0230
     85 H          -2.7310    5.0058    5.3244 H       1  LIG11       0.0230
     86 H          -1.5161    5.8210    4.3246 H       1  LIG11       0.0230
@<TRIPOS>BOND
     1     1     2    1
     2     1     3    1
     3     1     4    1
     4     2     5    1
     5     2     6    1
     6     3     8    1
     7     3     7    1
     8     4    10   ar
     9     4     9   ar
    10     5     8    1
    11     5    11    1
    12     6    12    1
    13     7    14   ar
    14     7    13   ar
    15    11    15    1
    16    12    18    1
    17    12    17    1
    18    12    16    1
    19    13    19   ar
    20    14    20   ar
    21    15    22    2
    22    15    21   am
    23    16    23    1
    24    19    25    1
    25    19    24   ar
    26    20    24   ar
    27    20    26    1
    28    21    28    1
    29    21    27    1
    30    23    29    1
    31    24    30    1
    32    25    31    1
    33    26    32    1
    34    27    33    1
    35    28    34    1
    36    30    31    1
    37    33    35    1
    38    34    36    1
    39    35    37    1
    40    36    38    1
    41     1    39    1
    42     2    40    1
    43     3    41    1
    44     5    42    1
    45     6    43    1
    46     6    44    1
    47     8    45    1
    48     8    46    1
    49    11    47    1
    50    11    48    1
    51    13    49    1
    52    14    50    1
    53    16    51    1
    54    16    52    1
    55    17    53    1
    56    17    54    1
    57    17    55    1
    58    18    56    1
    59    18    57    1
    60    18    58    1
    61    23    59    1
    62    23    60    1
    63    27    61    1
    64    27    62    1
    65    28    63    1
    66    28    64    1
    67    29    65    1
    68    29    66    1
    69    29    67    1
    70    31    68    1
    71    31    69    1
    72    32    70    1
    73    32    71    1
    74    32    72    1
    75    33    73    1
    76    33    74    1
    77    34    75    1
    78    34    76    1
    79    35    77    1
    80    35    78    1
    81    36    79    1
    82    36    80    1
    83    37    81    1
    84    37    82    1
    85    37    83    1
    86    38    84    1
    87    38    85    1
    88    38    86    1
@<TRIPOS>MOLECULE
../1EDN/PCA2_17-21.pdb
 47 48 0 0 0
SMALL
GASTEIGER

@<TRIPOS>ATOM
      1  N         -4.4680    0.3970   -1.5420 N.3    17  LEU17      -0.1231
      2  CA        -5.5730   -0.5090   -1.8150 C.3    17  LEU17       0.1693
      3  CB        -5.9860   -1.2020   -0.4580 C.3    17  LEU17       0.0284
      4  CG        -7.1280   -2.2100   -0.5390 C.3    17  LEU17       0.0019
      5  CD1       -6.7120   -3.3620   -1.4700 C.3    17  LEU17       0.0001
      6  CD2       -7.4980   -2.5610    0.9130 C.3    17  LEU17       0.0001
      7  C         -6.7000    0.2280   -2.5610 C.2    17  LEU17       0.2592
      8  O         -7.1860   -0.2780   -3.5510 O.2    17  LEU17      -0.2718
      9  N         -7.2650    1.2690   -1.9650 N.am   18  ASP18      -0.1960
     10  CA        -8.5260    1.8930   -2.2590 C.3    18  ASP18       0.1840
     11  CB        -9.6810    1.0560   -1.6740 C.3    18  ASP18       0.1450
     12  CG       -11.0010    1.6360   -2.1090 C.2    18  ASP18       0.3671
     13  OD1      -11.5960    2.3310   -1.2790 O.co2  18  ASP18      -0.2456
     14  OD2      -11.5460    1.2700   -3.1630 O.co2  18  ASP18      -0.2456
     15  C         -8.5570    3.3770   -1.7380 C.2    18  ASP18       0.2622
     16  O         -8.6960    4.2620   -2.5680 O.2    18  ASP18      -0.2715
     17  N         -8.4180    3.5730   -0.4160 N.am   19  ILE19      -0.1963
     18  CA        -8.3980    4.9040    0.1930 C.3    19  ILE19       0.1727
     19  CB        -8.4260    4.8620    1.7600 C.3    19  ILE19       0.0290
     20  CG2       -7.7310    6.0060    2.5190 C.3    19  ILE19       0.0023
     21  CG1       -9.9240    4.5740    2.2500 C.3    19  ILE19       0.0022
     22  CD1      -10.9740    5.6950    2.0110 C.3    19  ILE19       0.0001
     23  C         -7.1570    5.7010   -0.3260 C.2    19  ILE19       0.2616
     24  O         -7.3050    6.7970   -0.9200 O.2    19  ILE19      -0.2715
     25  N         -5.9900    5.0720   -0.2260 N.am   20  ILE20      -0.1963
     26  CA        -4.7520    5.3490   -0.9430 C.3    20  ILE20       0.1727
     27  CB        -3.5230    4.9310   -0.1080 C.3    20  ILE20       0.0290
     28  CG2       -2.1210    5.5060   -0.7390 C.3    20  ILE20       0.0023
     29  CG1       -3.5940    5.4760    1.3470 C.3    20  ILE20       0.0022
     30  CD1       -2.3570    5.1940    2.2260 C.3    20  ILE20       0.0001
     31  C         -4.7590    4.7050   -2.3650 C.2    20  ILE20       0.2617
     32  O         -4.2060    3.6200   -2.5900 O.2    20  ILE20      -0.2715
     33  N         -5.4060    5.3330   -3.3880 N.am   21  TRP21      -0.1938
     34  CA        -5.3950    4.7680   -4.7850 C.3    21  TRP21       0.2021
     35  CB        -6.6210    3.8650   -5.0310 C.3    21  TRP21       0.0612
     36  CG        -6.7890    3.3770   -6.4480 C.ar   21  TRP21       0.0007
     37  CD1       -7.1340    4.1960   -7.4760 C.ar   21  TRP21       0.0946
     38  NE1       -7.1740    3.4060   -8.6160 N.ar   21  TRP21      -0.2442
     39  CE2       -6.9360    2.0750   -8.3350 C.ar   21  TRP21       0.0810
     40  CZ2       -6.8300    1.0510   -9.2060 C.ar   21  TRP21       0.0191
     41  CH2       -6.3330   -0.2010   -8.7710 C.ar   21  TRP21       0.0015
     42  CZ3       -5.9560   -0.2520   -7.3640 C.ar   21  TRP21       0.0001
     43  CE3       -6.0150    0.8940   -6.5860 C.ar   21  TRP21       0.0012
     44  CD2       -6.6320    2.0560   -6.9830 C.ar   21  TRP21       0.0152
     45  C         -5.1960    5.8550   -5.8260 C.2    21  TRP21       0.3845
     46  O         -4.1840    5.6720   -6.5070 O.co2  21  TRP21      -0.2437
     47  OXT       -5.9640    6.8330   -6.0170 O.co2  21  TRP21      -0.2437
@<TRIPOS>BOND
     1    40    41   ar
     2    40    39   ar
     3    41    42   ar
     4    38    39   ar
     5    38    37   ar
     6    39    44   ar
     7    37    36   ar
     8    42    43   ar
     9    44    43   ar
    10    44    36   ar
    11    46    45   ar
    12    36    35    1
    13    47    45   ar
    14    45    34    1
    15    35    34    1
    16    34    33    1
    17     8     7    2
    18    33    31   am
    19    14    12   ar
    20    32    31    2
    21    16    15    2
    22     7     9   am
    23     7     2    1
    24    31    26    1
    25    10     9    1
    26    10    15    1
    27    10    11    1
    28    12    11    1
    29    12    13   ar
    30     2     1    1
    31     2     3    1
    32    15    17   am
    33     5     4    1
    34    26    25    1
    35    26    27    1
    36    24    23    2
    37    28    27    1
    38     4     3    1
    39     4     6    1
    40    17    18    1
    41    23    25   am
    42    23    18    1
    43    27    29    1
    44    18    19    1
    45    29    30    1
    46    19    21    1
    47    19    20    1
    48    22    21    1
