@<TRIPOS>MOLECULE
../1EDN/PCA3_17-21_NOBACKBONE.pdb
 26 23 0 0 0
SMALL
GASTEIGER

@<TRIPOS>ATOM
      1  CB        -5.7360   -1.8160   -1.1010 C.3    17  LEU17       0.0000
      2  CG        -6.9950   -2.5690   -1.5730 C.3    17  LEU17       0.0000
      3  CD1       -6.7530   -3.1800   -3.0080 C.3    17  LEU17       0.0000
      4  CD2       -7.2580   -3.7400   -0.6960 C.3    17  LEU17       0.0000
      5  CB        -9.1090    1.3410    0.3760 C.3    18  ASP18       0.1258
      6  CG       -10.1470    2.2990    0.9520 C.2    18  ASP18       0.3654
      7  OD1      -11.0720    2.5310    0.1500 O.co2  18  ASP18      -0.2456
      8  OD2      -10.1960    2.6850    2.1610 O.co2  18  ASP18      -0.2456
      9  CB        -5.3140    3.8890    3.0670 C.3    19  ILE19       0.0000
     10  CG2       -4.6600    5.0630    3.8540 C.3    19  ILE19       0.0000
     11  CG1       -6.1440    2.9790    3.9890 C.3    19  ILE19       0.0000
     12  CD1       -5.5170    2.2940    5.2130 C.3    19  ILE19       0.0000
     13  CB        -2.4460    5.7340   -1.0120 C.3    20  ILE20       0.0000
     14  CG2       -2.3030    7.0110   -0.1100 C.3    20  ILE20       0.0000
     15  CG1       -1.4300    4.6170   -0.6100 C.3    20  ILE20       0.0000
     16  CD1        0.0800    4.9990   -0.7110 C.3    20  ILE20       0.0000
     17  CB        -6.2680    3.7450   -4.8170 C.3    21  TRP21       0.0327
     18  CG        -6.5090    2.9660   -6.0890 C.ar   21  TRP21      -0.0013
     19  CD1       -7.0550    3.4090   -7.2190 C.ar   21  TRP21       0.0946
     20  NE1       -7.1560    2.4190   -8.1260 N.ar   21  TRP21      -0.2442
     21  CE2       -6.6880    1.2600   -7.6470 C.ar   21  TRP21       0.0810
     22  CZ2       -6.5320   -0.1050   -8.0600 C.ar   21  TRP21       0.0191
     23  CH2       -5.9630   -1.0770   -7.2340 C.ar   21  TRP21       0.0015
     24  CZ3       -5.4330   -0.7150   -5.9030 C.ar   21  TRP21       0.0001
     25  CE3       -5.5290    0.6400   -5.5430 C.ar   21  TRP21       0.0012
     26  CD2       -6.2440    1.5830   -6.3190 C.ar   21  TRP21       0.0152
@<TRIPOS>BOND
     1    20    21   ar
     2    20    19   ar
     3    22    21   ar
     4    22    23   ar
     5    21    26   ar
     6    23    24   ar
     7    19    18   ar
     8    26    18   ar
     9    26    25   ar
    10    18    17    1
    11    24    25   ar
    12     3     2    1
    13     2     1    1
    14     2     4    1
    15    13    15    1
    16    13    14    1
    17    16    15    1
    18     7     6   ar
    19     5     6    1
    20     6     8   ar
    21     9    10    1
    22     9    11    1
    23    11    12    1
@<TRIPOS>MOLECULE
11672244
 106 111 0 0 0
SMALL
GASTEIGER

@<TRIPOS>ATOM
      1 O          -3.7280    0.6091   -3.2731 O.3     1  LIG11      -0.4607
      2 O          -4.0583   -2.5431    2.7499 O.2     1  LIG11      -0.2968
      3 O          -8.7893    0.4384   -6.8249 O.co2   1  LIG11      -0.5492
      4 O          -7.8836   -1.0059   -8.3254 O.co2   1  LIG11      -0.5492
      5 O          -1.9389   -0.6468   -2.5509 O.2     1  LIG11      -0.2456
      6 O          -0.0762    6.3316   -1.6601 O.3     1  LIG11      -0.5067
      7 O          -4.4443    5.0190    2.9687 O.2     1  LIG11      -0.2705
      8 O          -7.2255    2.1544    5.9892 O.co2   1  LIG11      -0.5452
      9 O          -7.2321    1.0063    4.0129 O.co2   1  LIG11      -0.5452
     10 N          -4.0056    3.5550    1.2059 N.am    1  LIG11      -0.2815
     11 C          -6.0463   -1.6602   -3.3621 C.3     1  LIG11      -0.0160
     12 C          -6.1968   -0.8160   -2.0430 C.3     1  LIG11      -0.0256
     13 C          -5.4882   -0.6919   -4.5614 C.3     1  LIG11       0.0318
     14 C          -6.3514   -1.6111   -0.6629 C.3     1  LIG11      -0.0243
     15 C          -5.2329   -2.7166   -0.6325 C.3     1  LIG11      -0.0235
     16 C          -5.0901   -2.8593   -3.1345 C.3     1  LIG11      -0.0461
     17 C          -6.3226    0.6108   -4.6431 C.2     1  LIG11      -0.0596
     18 C          -6.2065    1.4154   -5.9569 C.3     1  LIG11      -0.0080
     19 C          -5.3562   -3.6458   -1.8543 C.3     1  LIG11      -0.0483
     20 C          -5.5581   -1.4708   -5.9215 C.3     1  LIG11      -0.0392
     21 C          -7.2026    0.3337   -2.2662 C.3     1  LIG11      -0.0306
     22 C          -6.4125    0.5408   -7.2203 C.3     1  LIG11       0.0167
     23 C          -5.0090   -3.4656    0.7215 C.3     1  LIG11       0.0267
     24 C          -6.0510   -0.6267    0.5113 C.3     1  LIG11      -0.0404
     25 C          -5.3856   -0.6132   -7.1770 C.3     1  LIG11      -0.0408
     26 C          -7.4333   -2.2559   -3.7697 C.3     1  LIG11      -0.0584
     27 C          -7.0720    1.0209   -3.5975 C.2     1  LIG11      -0.0835
     28 C          -3.9754   -0.2720   -4.3847 C.3     1  LIG11       0.1025
     29 C          -7.7773   -2.1710   -0.4522 C.3     1  LIG11      -0.0590
     30 C          -6.9853    2.7553   -6.0194 C.3     1  LIG11      -0.0405
     31 C          -6.1522    1.3727   -8.5012 C.3     1  LIG11      -0.0412
     32 C          -5.8926   -1.2944    1.8748 C.3     1  LIG11       0.0069
     33 C          -6.7547    3.5651   -7.3187 C.3     1  LIG11      -0.0343
     34 C          -4.8885   -2.4224    1.8453 C.2     1  LIG11       0.1392
     35 C          -6.9623    2.6689   -8.5541 C.3     1  LIG11      -0.0470
     36 C          -6.0958   -4.4804    1.0970 C.3     1  LIG11      -0.0528
     37 C          -3.6641   -4.2395    0.6675 C.3     1  LIG11      -0.0528
     38 C          -7.8325   -0.0743   -7.4668 C.2     1  LIG11       0.0485
     39 C          -7.7692    4.7245   -7.3703 C.3     1  LIG11      -0.0598
     40 C          -5.3408    4.1814   -7.3322 C.3     1  LIG11      -0.0598
     41 C          -2.6600    0.3383   -2.4921 C.2     1  LIG11       0.3320
     42 C          -2.3410    1.4792   -1.6048 C.2     1  LIG11       0.0231
     43 C          -3.1143    2.5640   -1.4336 C.2     1  LIG11      -0.0460
     44 C          -2.5805    3.7709   -0.7765 C.ar    1  LIG11      -0.0001
     45 C          -3.0216    4.2660    0.4707 C.ar    1  LIG11       0.0411
     46 C          -1.5901    4.4741   -1.4968 C.ar    1  LIG11      -0.0113
     47 C          -2.4380    5.4465    0.9594 C.ar    1  LIG11      -0.0364
     48 C          -1.0356    5.6391   -0.9828 C.ar    1  LIG11       0.1175
     49 C          -1.4512    6.1286    0.2405 C.ar    1  LIG11      -0.0184
     50 C          -4.5969    3.9464    2.3964 C.2     1  LIG11       0.2411
     51 C          -5.4882    2.8947    2.9553 C.2     1  LIG11       0.0021
     52 C          -6.0106    3.0222    4.1852 C.2     1  LIG11      -0.0344
     53 C          -6.9092    1.9518    4.7842 C.2     1  LIG11       0.0647
     54 H           0.0719    5.8913   -2.5129 H       1  LIG11       0.2921
     55 H          -4.2965    2.6646    0.8243 H       1  LIG11       0.1551
     56 H          -5.2351   -0.3190   -1.9083 H       1  LIG11       0.0315
     57 H          -4.2909   -2.1606   -0.7803 H       1  LIG11       0.0315
     58 H          -4.0531   -2.5212   -3.0711 H       1  LIG11       0.0271
     59 H          -5.1285   -3.5496   -3.9857 H       1  LIG11       0.0271
     60 H          -5.1536    1.7291   -5.9710 H       1  LIG11       0.0355
     61 H          -6.3287   -4.1429   -1.8990 H       1  LIG11       0.0269
     62 H          -4.6136   -4.4477   -1.8165 H       1  LIG11       0.0269
     63 H          -6.5149   -1.9838   -6.0369 H       1  LIG11       0.0275
     64 H          -4.7944   -2.2587   -5.9363 H       1  LIG11       0.0275
     65 H          -8.2363   -0.0147   -2.1921 H       1  LIG11       0.0310
     66 H          -7.0664    1.0911   -1.4859 H       1  LIG11       0.0310
     67 H          -6.8428    0.1281    0.5861 H       1  LIG11       0.0275
     68 H          -5.1223   -0.0803    0.2976 H       1  LIG11       0.0275
     69 H          -5.4703   -1.2612   -8.0587 H       1  LIG11       0.0275
     70 H          -4.3652   -0.2138   -7.2205 H       1  LIG11       0.0275
     71 H          -7.9718   -2.6927   -2.9331 H       1  LIG11       0.0235
     72 H          -7.3274   -3.0718   -4.4933 H       1  LIG11       0.0235
     73 H          -8.0979   -1.5098   -4.2155 H       1  LIG11       0.0235
     74 H          -7.6802    1.9167   -3.6866 H       1  LIG11       0.0572
     75 H          -3.3267   -1.1529   -4.3654 H       1  LIG11       0.0706
     76 H          -3.6349    0.2945   -5.2572 H       1  LIG11       0.0706
     77 H          -7.9371   -3.1341   -0.9383 H       1  LIG11       0.0235
     78 H          -8.5508   -1.4870   -0.8067 H       1  LIG11       0.0235
     79 H          -8.0162   -2.3267    0.6014 H       1  LIG11       0.0235
     80 H          -6.6932    3.3822   -5.1654 H       1  LIG11       0.0276
     81 H          -8.0588    2.5706   -5.8987 H       1  LIG11       0.0276
     82 H          -6.3742    0.7890   -9.4045 H       1  LIG11       0.0274
     83 H          -5.0848    1.6169   -8.5719 H       1  LIG11       0.0274
     84 H          -6.8397   -1.6802    2.2611 H       1  LIG11       0.0342
     85 H          -5.5339   -0.5476    2.5915 H       1  LIG11       0.0342
     86 H          -8.0264    2.4215   -8.6582 H       1  LIG11       0.0271
     87 H          -6.6932    3.2174   -9.4661 H       1  LIG11       0.0271
     88 H          -7.0481   -4.0152    1.3521 H       1  LIG11       0.0239
     89 H          -5.8007   -5.0498    1.9875 H       1  LIG11       0.0239
     90 H          -6.2693   -5.2030    0.2934 H       1  LIG11       0.0239
     91 H          -2.8369   -3.5781    0.3846 H       1  LIG11       0.0239
     92 H          -3.6931   -5.0733   -0.0399 H       1  LIG11       0.0239
     93 H          -3.4088   -4.6726    1.6424 H       1  LIG11       0.0239
     94 H          -8.7997    4.3517   -7.3655 H       1  LIG11       0.0235
     95 H          -7.6383    5.3249   -8.2778 H       1  LIG11       0.0235
     96 H          -7.6528    5.3907   -6.5081 H       1  LIG11       0.0235
     97 H          -4.5511    3.4257   -7.3005 H       1  LIG11       0.0235
     98 H          -5.1932    4.8435   -6.4715 H       1  LIG11       0.0235
     99 H          -5.1829    4.7785   -8.2378 H       1  LIG11       0.0235
    100 H          -1.3570    1.4097   -1.1514 H       1  LIG11       0.0689
    101 H          -4.0993    2.6576   -1.8857 H       1  LIG11       0.0626
    102 H          -1.2673    4.1013   -2.4654 H       1  LIG11       0.0660
    103 H          -2.7204    5.8674    1.9189 H       1  LIG11       0.0637
    104 H          -1.0189    7.0379    0.6463 H       1  LIG11       0.0655
    105 H          -5.7035    2.0153    2.3613 H       1  LIG11       0.0670
    106 H          -5.8005    3.8907    4.8016 H       1  LIG11       0.0637
@<TRIPOS>BOND
     1     1    41    1
     2     1    28    1
     3     2    34    2
     4     3    38   ar
     5     4    38   ar
     6     5    41    2
     7     6    48    1
     8     7    50    2
     9     8    53   ar
    10     9    53   ar
    11    10    45    1
    12    10    50   am
    13    11    16    1
    14    11    12    1
    15    11    26    1
    16    11    13    1
    17    12    14    1
    18    13    20    1
    19    13    17    1
    20    13    28    1
    21    14    15    1
    22    14    24    1
    23    14    29    1
    24    15    19    1
    25    15    23    1
    26    16    19    1
    27    17    18    1
    28    17    27    2
    29    18    30    1
    30    18    22    1
    31    20    25    1
    32    21    27    1
    33    21    12    1
    34    22    31    1
    35    22    25    1
    36    22    38    1
    37    23    34    1
    38    23    37    1
    39    23    36    1
    40    24    32    1
    41    30    33    1
    42    31    35    1
    43    32    34    1
    44    33    35    1
    45    33    40    1
    46    33    39    1
    47    41    42    1
    48    42    43    2
    49    43    44    1
    50    44    46   ar
    51    44    45   ar
    52    45    47   ar
    53    46    48   ar
    54    47    49   ar
    55    48    49   ar
    56    50    51    1
    57    51    52    2
    58    52    53    1
    59     6    54    1
    60    10    55    1
    61    12    56    1
    62    15    57    1
    63    16    58    1
    64    16    59    1
    65    18    60    1
    66    19    61    1
    67    19    62    1
    68    20    63    1
    69    20    64    1
    70    21    65    1
    71    21    66    1
    72    24    67    1
    73    24    68    1
    74    25    69    1
    75    25    70    1
    76    26    71    1
    77    26    72    1
    78    26    73    1
    79    27    74    1
    80    28    75    1
    81    28    76    1
    82    29    77    1
    83    29    78    1
    84    29    79    1
    85    30    80    1
    86    30    81    1
    87    31    82    1
    88    31    83    1
    89    32    84    1
    90    32    85    1
    91    35    86    1
    92    35    87    1
    93    36    88    1
    94    36    89    1
    95    36    90    1
    96    37    91    1
    97    37    92    1
    98    37    93    1
    99    39    94    1
   100    39    95    1
   101    39    96    1
   102    40    97    1
   103    40    98    1
   104    40    99    1
   105    42   100    1
   106    43   101    1
   107    46   102    1
   108    47   103    1
   109    49   104    1
   110    51   105    1
   111    52   106    1
@<TRIPOS>MOLECULE
../1EDN/PCA3_17-21.pdb
 47 48 0 0 0
SMALL
GASTEIGER

@<TRIPOS>ATOM
      1  N         -4.2370    0.0490   -1.5930 N.3    17  LEU17      -0.1231
      2  CA        -5.5250   -0.5610   -1.9200 C.3    17  LEU17       0.1693
      3  CB        -5.7360   -1.8160   -1.1010 C.3    17  LEU17       0.0284
      4  CG        -6.9950   -2.5690   -1.5730 C.3    17  LEU17       0.0019
      5  CD1       -6.7530   -3.1800   -3.0080 C.3    17  LEU17       0.0001
      6  CD2       -7.2580   -3.7400   -0.6960 C.3    17  LEU17       0.0001
      7  C         -6.6810    0.4320   -1.9250 C.2    17  LEU17       0.2592
      8  O         -7.3270    0.6200   -2.9560 O.2    17  LEU17      -0.2718
      9  N         -6.9500    1.1080   -0.7900 N.am   18  ASP18      -0.1960
     10  CA        -8.0880    2.0070   -0.5710 C.3    18  ASP18       0.1840
     11  CB        -9.1090    1.3410    0.3760 C.3    18  ASP18       0.1450
     12  CG       -10.1470    2.2990    0.9520 C.2    18  ASP18       0.3671
     13  OD1      -11.0720    2.5310    0.1500 O.co2  18  ASP18      -0.2456
     14  OD2      -10.1960    2.6850    2.1610 O.co2  18  ASP18      -0.2456
     15  C         -7.6280    3.3500    0.0060 C.2    18  ASP18       0.2622
     16  O         -7.9950    4.4650   -0.3580 O.2    18  ASP18      -0.2715
     17  N         -6.8140    3.2050    1.0390 N.am   19  ILE19      -0.1963
     18  CA        -6.1800    4.3790    1.8160 C.3    19  ILE19       0.1727
     19  CB        -5.3140    3.8890    3.0670 C.3    19  ILE19       0.0290
     20  CG2       -4.6600    5.0630    3.8540 C.3    19  ILE19       0.0023
     21  CG1       -6.1440    2.9790    3.9890 C.3    19  ILE19       0.0022
     22  CD1       -5.5170    2.2940    5.2130 C.3    19  ILE19       0.0001
     23  C         -5.2670    5.2520    0.8640 C.2    19  ILE19       0.2616
     24  O         -5.3920    6.4650    0.9090 O.2    19  ILE19      -0.2715
     25  N         -4.4890    4.6060    0.0020 N.am   20  ILE20      -0.1963
     26  CA        -3.9690    5.2910   -1.1850 C.3    20  ILE20       0.1727
     27  CB        -2.4460    5.7340   -1.0120 C.3    20  ILE20       0.0290
     28  CG2       -2.3030    7.0110   -0.1100 C.3    20  ILE20       0.0023
     29  CG1       -1.4300    4.6170   -0.6100 C.3    20  ILE20       0.0022
     30  CD1        0.0800    4.9990   -0.7110 C.3    20  ILE20       0.0001
     31  C         -4.1660    4.3690   -2.4130 C.2    20  ILE20       0.2617
     32  O         -3.9200    3.1710   -2.5010 O.2    20  ILE20      -0.2715
     33  N         -4.6410    5.0460   -3.5090 N.am   21  TRP21      -0.1938
     34  CA        -4.8980    4.4430   -4.8120 C.3    21  TRP21       0.2021
     35  CB        -6.2680    3.7450   -4.8170 C.3    21  TRP21       0.0612
     36  CG        -6.5090    2.9660   -6.0890 C.ar   21  TRP21       0.0007
     37  CD1       -7.0550    3.4090   -7.2190 C.ar   21  TRP21       0.0946
     38  NE1       -7.1560    2.4190   -8.1260 N.ar   21  TRP21      -0.2442
     39  CE2       -6.6880    1.2600   -7.6470 C.ar   21  TRP21       0.0810
     40  CZ2       -6.5320   -0.1050   -8.0600 C.ar   21  TRP21       0.0191
     41  CH2       -5.9630   -1.0770   -7.2340 C.ar   21  TRP21       0.0015
     42  CZ3       -5.4330   -0.7150   -5.9030 C.ar   21  TRP21       0.0001
     43  CE3       -5.5290    0.6400   -5.5430 C.ar   21  TRP21       0.0012
     44  CD2       -6.2440    1.5830   -6.3190 C.ar   21  TRP21       0.0152
     45  C         -4.7460    5.5030   -5.9410 C.2    21  TRP21       0.3845
     46  O         -5.6740    6.3580   -6.0770 O.co2  21  TRP21      -0.2437
     47  OXT       -3.7150    5.4030   -6.6310 O.co2  21  TRP21      -0.2437
@<TRIPOS>BOND
     1    38    39   ar
     2    38    37   ar
     3    40    39   ar
     4    40    41   ar
     5    39    44   ar
     6    41    42   ar
     7    37    36   ar
     8    47    45   ar
     9    44    36   ar
    10    44    43   ar
    11    36    35    1
    12    46    45   ar
    13    45    34    1
    14    42    43   ar
    15    35    34    1
    16    34    33    1
    17    33    31   am
    18     5     4    1
    19     8     7    2
    20    32    31    2
    21    31    26    1
    22     7     2    1
    23     7     9   am
    24     2     1    1
    25     2     3    1
    26     4     3    1
    27     4     6    1
    28    26    27    1
    29    26    25    1
    30    27    29    1
    31    27    28    1
    32     9    10    1
    33    30    29    1
    34    10    15    1
    35    10    11    1
    36    16    15    2
    37    25    23   am
    38    15    17   am
    39    13    12   ar
    40    11    12    1
    41    23    24    2
    42    23    18    1
    43    12    14   ar
    44    17    18    1
    45    18    19    1
    46    19    20    1
    47    19    21    1
    48    21    22    1
