@<TRIPOS>MOLECULE
../1EDN/PCA3_17-21_NOBACKBONE.pdb
 26 23 0 0 0
SMALL
GASTEIGER

@<TRIPOS>ATOM
      1  CB        -5.7360   -1.8160   -1.1010 C.3    17  LEU17       0.0000
      2  CG        -6.9950   -2.5690   -1.5730 C.3    17  LEU17       0.0000
      3  CD1       -6.7530   -3.1800   -3.0080 C.3    17  LEU17       0.0000
      4  CD2       -7.2580   -3.7400   -0.6960 C.3    17  LEU17       0.0000
      5  CB        -9.1090    1.3410    0.3760 C.3    18  ASP18       0.1258
      6  CG       -10.1470    2.2990    0.9520 C.2    18  ASP18       0.3654
      7  OD1      -11.0720    2.5310    0.1500 O.co2  18  ASP18      -0.2456
      8  OD2      -10.1960    2.6850    2.1610 O.co2  18  ASP18      -0.2456
      9  CB        -5.3140    3.8890    3.0670 C.3    19  ILE19       0.0000
     10  CG2       -4.6600    5.0630    3.8540 C.3    19  ILE19       0.0000
     11  CG1       -6.1440    2.9790    3.9890 C.3    19  ILE19       0.0000
     12  CD1       -5.5170    2.2940    5.2130 C.3    19  ILE19       0.0000
     13  CB        -2.4460    5.7340   -1.0120 C.3    20  ILE20       0.0000
     14  CG2       -2.3030    7.0110   -0.1100 C.3    20  ILE20       0.0000
     15  CG1       -1.4300    4.6170   -0.6100 C.3    20  ILE20       0.0000
     16  CD1        0.0800    4.9990   -0.7110 C.3    20  ILE20       0.0000
     17  CB        -6.2680    3.7450   -4.8170 C.3    21  TRP21       0.0327
     18  CG        -6.5090    2.9660   -6.0890 C.ar   21  TRP21      -0.0013
     19  CD1       -7.0550    3.4090   -7.2190 C.ar   21  TRP21       0.0946
     20  NE1       -7.1560    2.4190   -8.1260 N.ar   21  TRP21      -0.2442
     21  CE2       -6.6880    1.2600   -7.6470 C.ar   21  TRP21       0.0810
     22  CZ2       -6.5320   -0.1050   -8.0600 C.ar   21  TRP21       0.0191
     23  CH2       -5.9630   -1.0770   -7.2340 C.ar   21  TRP21       0.0015
     24  CZ3       -5.4330   -0.7150   -5.9030 C.ar   21  TRP21       0.0001
     25  CE3       -5.5290    0.6400   -5.5430 C.ar   21  TRP21       0.0012
     26  CD2       -6.2440    1.5830   -6.3190 C.ar   21  TRP21       0.0152
@<TRIPOS>BOND
     1    20    21   ar
     2    20    19   ar
     3    22    21   ar
     4    22    23   ar
     5    21    26   ar
     6    23    24   ar
     7    19    18   ar
     8    26    18   ar
     9    26    25   ar
    10    18    17    1
    11    24    25   ar
    12     3     2    1
    13     2     1    1
    14     2     4    1
    15    13    15    1
    16    13    14    1
    17    16    15    1
    18     7     6   ar
    19     5     6    1
    20     6     8   ar
    21     9    10    1
    22     9    11    1
    23    11    12    1
@<TRIPOS>MOLECULE
9911482
 51 53 0 0 0
SMALL
GASTEIGER

@<TRIPOS>ATOM
      1 S          -9.3703   -0.6247   -1.5893 S.O2    1  LIG11       0.0758
      2 S          -5.3751   -1.6762   -2.6212 S.2     1  LIG11      -0.0902
      3 O         -11.1273    2.0063   -0.1099 O.2     1  LIG11      -0.3377
      4 O          -9.8189   -1.2173   -0.3473 O.2     1  LIG11      -0.1499
      5 O          -9.9659   -0.9882   -2.8561 O.2     1  LIG11      -0.1499
      6 O          -7.8850    1.0011   -3.8248 O.2     1  LIG11      -0.2692
      7 O          -6.3942    3.8743   -4.9426 O.2     1  LIG11      -0.2923
      8 N          -6.3993   -0.2549   -5.0471 N.am    1  LIG11      -0.2802
      9 N          -9.3303    1.0610   -1.4831 N.pl3   1  LIG11      -0.1831
     10 N         -11.3153    2.4097    1.2006 N.ar    1  LIG11      -0.0810
     11 C          -6.4178    0.5122   -6.2342 C.ar    1  LIG11       0.0471
     12 C          -7.7335   -1.1923   -1.7425 C.ar    1  LIG11       0.1277
     13 C          -6.5679   -0.1722   -7.4622 C.ar    1  LIG11      -0.0283
     14 C          -6.2615    1.9167   -6.2488 C.ar    1  LIG11       0.0388
     15 C          -6.8868   -0.8674   -2.7875 C.ar    1  LIG11       0.1007
     16 C          -6.4552    1.9491   -8.6802 C.ar    1  LIG11      -0.0494
     17 C          -6.5722    0.5583   -8.6678 C.ar    1  LIG11      -0.0541
     18 C          -6.3016    2.6195   -7.4663 C.ar    1  LIG11      -0.0466
     19 C          -7.1120    0.0523   -3.8966 C.2     1  LIG11       0.2568
     20 C          -9.8583    1.5512   -0.2648 C.ar    1  LIG11       0.2399
     21 C          -7.1317   -2.0948   -0.8077 C.ar    1  LIG11      -0.0273
     22 C          -9.1578    1.7158    0.9088 C.ar    1  LIG11       0.0350
     23 C          -6.7873   -1.6591   -7.5862 C.3     1  LIG11      -0.0379
     24 C          -5.8981    2.7557   -5.0708 C.2     1  LIG11       0.1619
     25 C         -10.1343    2.2315    1.8049 C.ar    1  LIG11       0.0854
     26 C          -5.8467   -2.4293   -1.1648 C.ar    1  LIG11      -0.0217
     27 C          -6.4502    2.7169   -9.9686 C.3     1  LIG11      -0.0397
     28 C          -7.7280    1.4544    1.1826 C.3     1  LIG11      -0.0330
     29 C          -9.9642    2.5866    3.2333 C.3     1  LIG11      -0.0188
     30 C          -4.8269    2.2705   -4.1273 C.3     1  LIG11      -0.0013
     31 H          -6.1022   -1.2182   -5.1116 H       1  LIG11       0.1552
     32 H          -9.8417    1.4045   -2.3013 H       1  LIG11       0.1768
     33 H          -6.6923    0.0268   -9.6118 H       1  LIG11       0.0623
     34 H          -6.1775    3.7027   -7.4646 H       1  LIG11       0.0628
     35 H          -7.6236   -2.4832    0.0781 H       1  LIG11       0.0643
     36 H          -6.9677   -2.1592   -6.6322 H       1  LIG11       0.0278
     37 H          -5.9176   -2.1263   -8.0588 H       1  LIG11       0.0278
     38 H          -7.6730   -1.8513   -8.2030 H       1  LIG11       0.0278
     39 H          -5.1651   -3.0880   -0.6421 H       1  LIG11       0.0694
     40 H          -6.7257    2.0801  -10.8157 H       1  LIG11       0.0278
     41 H          -5.4516    3.1233  -10.1584 H       1  LIG11       0.0278
     42 H          -7.1713    3.5394   -9.9241 H       1  LIG11       0.0278
     43 H          -7.1783    1.1943    0.2728 H       1  LIG11       0.0280
     44 H          -7.6160    0.6317    1.8954 H       1  LIG11       0.0280
     45 H          -7.2535    2.3463    1.6064 H       1  LIG11       0.0280
     46 H         -10.9240    2.7991    3.7146 H       1  LIG11       0.0294
     47 H          -9.3298    3.4732    3.3300 H       1  LIG11       0.0294
     48 H          -9.4905    1.7637    3.7786 H       1  LIG11       0.0294
     49 H          -4.0960    3.0735   -3.9886 H       1  LIG11       0.0309
     50 H          -4.2871    1.4099   -4.5284 H       1  LIG11       0.0309
     51 H          -5.2679    2.0190   -3.1604 H       1  LIG11       0.0309
@<TRIPOS>BOND
     1     1     4    2
     2     1     5    2
     3     1     9    1
     4     1    12    1
     5     2    15   ar
     6     2    26   ar
     7     3    10   ar
     8     3    20   ar
     9     6    19    2
    10     7    24    2
    11     8    11    1
    12     8    19   am
    13     9    20    1
    14    10    25   ar
    15    11    13   ar
    16    11    14   ar
    17    12    15   ar
    18    12    21   ar
    19    13    17   ar
    20    13    23    1
    21    14    18   ar
    22    14    24    1
    23    15    19    1
    24    16    17   ar
    25    16    18   ar
    26    16    27    1
    27    20    22   ar
    28    21    26   ar
    29    22    25   ar
    30    22    28    1
    31    24    30    1
    32    25    29    1
    33     8    31    1
    34     9    32    1
    35    17    33    1
    36    18    34    1
    37    21    35    1
    38    23    36    1
    39    23    37    1
    40    23    38    1
    41    26    39    1
    42    27    40    1
    43    27    41    1
    44    27    42    1
    45    28    43    1
    46    28    44    1
    47    28    45    1
    48    29    46    1
    49    29    47    1
    50    29    48    1
    51    30    49    1
    52    30    50    1
    53    30    51    1
@<TRIPOS>MOLECULE
../1EDN/PCA3_17-21.pdb
 47 48 0 0 0
SMALL
GASTEIGER

@<TRIPOS>ATOM
      1  N         -4.2370    0.0490   -1.5930 N.3    17  LEU17      -0.1231
      2  CA        -5.5250   -0.5610   -1.9200 C.3    17  LEU17       0.1693
      3  CB        -5.7360   -1.8160   -1.1010 C.3    17  LEU17       0.0284
      4  CG        -6.9950   -2.5690   -1.5730 C.3    17  LEU17       0.0019
      5  CD1       -6.7530   -3.1800   -3.0080 C.3    17  LEU17       0.0001
      6  CD2       -7.2580   -3.7400   -0.6960 C.3    17  LEU17       0.0001
      7  C         -6.6810    0.4320   -1.9250 C.2    17  LEU17       0.2592
      8  O         -7.3270    0.6200   -2.9560 O.2    17  LEU17      -0.2718
      9  N         -6.9500    1.1080   -0.7900 N.am   18  ASP18      -0.1960
     10  CA        -8.0880    2.0070   -0.5710 C.3    18  ASP18       0.1840
     11  CB        -9.1090    1.3410    0.3760 C.3    18  ASP18       0.1450
     12  CG       -10.1470    2.2990    0.9520 C.2    18  ASP18       0.3671
     13  OD1      -11.0720    2.5310    0.1500 O.co2  18  ASP18      -0.2456
     14  OD2      -10.1960    2.6850    2.1610 O.co2  18  ASP18      -0.2456
     15  C         -7.6280    3.3500    0.0060 C.2    18  ASP18       0.2622
     16  O         -7.9950    4.4650   -0.3580 O.2    18  ASP18      -0.2715
     17  N         -6.8140    3.2050    1.0390 N.am   19  ILE19      -0.1963
     18  CA        -6.1800    4.3790    1.8160 C.3    19  ILE19       0.1727
     19  CB        -5.3140    3.8890    3.0670 C.3    19  ILE19       0.0290
     20  CG2       -4.6600    5.0630    3.8540 C.3    19  ILE19       0.0023
     21  CG1       -6.1440    2.9790    3.9890 C.3    19  ILE19       0.0022
     22  CD1       -5.5170    2.2940    5.2130 C.3    19  ILE19       0.0001
     23  C         -5.2670    5.2520    0.8640 C.2    19  ILE19       0.2616
     24  O         -5.3920    6.4650    0.9090 O.2    19  ILE19      -0.2715
     25  N         -4.4890    4.6060    0.0020 N.am   20  ILE20      -0.1963
     26  CA        -3.9690    5.2910   -1.1850 C.3    20  ILE20       0.1727
     27  CB        -2.4460    5.7340   -1.0120 C.3    20  ILE20       0.0290
     28  CG2       -2.3030    7.0110   -0.1100 C.3    20  ILE20       0.0023
     29  CG1       -1.4300    4.6170   -0.6100 C.3    20  ILE20       0.0022
     30  CD1        0.0800    4.9990   -0.7110 C.3    20  ILE20       0.0001
     31  C         -4.1660    4.3690   -2.4130 C.2    20  ILE20       0.2617
     32  O         -3.9200    3.1710   -2.5010 O.2    20  ILE20      -0.2715
     33  N         -4.6410    5.0460   -3.5090 N.am   21  TRP21      -0.1938
     34  CA        -4.8980    4.4430   -4.8120 C.3    21  TRP21       0.2021
     35  CB        -6.2680    3.7450   -4.8170 C.3    21  TRP21       0.0612
     36  CG        -6.5090    2.9660   -6.0890 C.ar   21  TRP21       0.0007
     37  CD1       -7.0550    3.4090   -7.2190 C.ar   21  TRP21       0.0946
     38  NE1       -7.1560    2.4190   -8.1260 N.ar   21  TRP21      -0.2442
     39  CE2       -6.6880    1.2600   -7.6470 C.ar   21  TRP21       0.0810
     40  CZ2       -6.5320   -0.1050   -8.0600 C.ar   21  TRP21       0.0191
     41  CH2       -5.9630   -1.0770   -7.2340 C.ar   21  TRP21       0.0015
     42  CZ3       -5.4330   -0.7150   -5.9030 C.ar   21  TRP21       0.0001
     43  CE3       -5.5290    0.6400   -5.5430 C.ar   21  TRP21       0.0012
     44  CD2       -6.2440    1.5830   -6.3190 C.ar   21  TRP21       0.0152
     45  C         -4.7460    5.5030   -5.9410 C.2    21  TRP21       0.3845
     46  O         -5.6740    6.3580   -6.0770 O.co2  21  TRP21      -0.2437
     47  OXT       -3.7150    5.4030   -6.6310 O.co2  21  TRP21      -0.2437
@<TRIPOS>BOND
     1    38    39   ar
     2    38    37   ar
     3    40    39   ar
     4    40    41   ar
     5    39    44   ar
     6    41    42   ar
     7    37    36   ar
     8    47    45   ar
     9    44    36   ar
    10    44    43   ar
    11    36    35    1
    12    46    45   ar
    13    45    34    1
    14    42    43   ar
    15    35    34    1
    16    34    33    1
    17    33    31   am
    18     5     4    1
    19     8     7    2
    20    32    31    2
    21    31    26    1
    22     7     2    1
    23     7     9   am
    24     2     1    1
    25     2     3    1
    26     4     3    1
    27     4     6    1
    28    26    27    1
    29    26    25    1
    30    27    29    1
    31    27    28    1
    32     9    10    1
    33    30    29    1
    34    10    15    1
    35    10    11    1
    36    16    15    2
    37    25    23   am
    38    15    17   am
    39    13    12   ar
    40    11    12    1
    41    23    24    2
    42    23    18    1
    43    12    14   ar
    44    17    18    1
    45    18    19    1
    46    19    20    1
    47    19    21    1
    48    21    22    1
