@<TRIPOS>MOLECULE
../1EDN/XRAY_17-21_NOBACKBONE.pdb
 26 23 0 0 0
SMALL
GASTEIGER

@<TRIPOS>ATOM
      1  CB         5.6570  -21.0170   -0.8850 C.3    17  LEU17       0.0000
      2  CG         5.4050  -22.5400   -0.8470 C.3    17  LEU17       0.0000
      3  CD1        6.1110  -23.2140    0.3150 C.3    17  LEU17       0.0000
      4  CD2        3.9240  -22.7940   -0.7690 C.3    17  LEU17       0.0000
      5  CB         3.8720  -17.2370    1.5730 C.3    18  ASP18       0.0476
      6  CG         2.4440  -17.7210    1.8880 C.2    18  ASP18       0.0507
      7  OD1        1.8320  -18.4410    1.0660 O.co2  18  ASP18      -0.5492
      8  OD2        1.9260  -17.3730    2.9700 O.co2  18  ASP18      -0.5492
      9  CB         7.9140  -14.3690   -1.8400 C.3    19  ILE19       0.0000
     10  CG1        8.8760  -14.8240   -0.7490 C.3    19  ILE19       0.0000
     11  CG2        8.2810  -12.9320   -2.2380 C.3    19  ILE19       0.0000
     12  CD1        9.3280  -13.7050    0.1860 C.3    19  ILE19       0.0000
     13  CB         5.8140  -13.8870   -5.9550 C.3    20  ILE20       0.0000
     14  CG1        5.9530  -12.3980   -5.6400 C.3    20  ILE20       0.0000
     15  CG2        5.1640  -14.0490   -7.3150 C.3    20  ILE20       0.0000
     16  CD1        6.8340  -11.6390   -6.6010 C.3    20  ILE20       0.0000
     17  CB         2.6690  -18.5180   -5.3120 C.3    21  TRP21       0.0327
     18  CG         1.5690  -17.9980   -4.3600 C.ar   21  TRP21      -0.0013
     19  CD1        0.7990  -18.7930   -3.5490 C.ar   21  TRP21       0.0946
     20  CD2        1.2480  -16.6350   -3.9890 C.ar   21  TRP21       0.0152
     21  CE2        0.3020  -16.7070   -2.9250 C.ar   21  TRP21       0.0810
     22  CE3        1.6680  -15.3700   -4.4360 C.ar   21  TRP21       0.0012
     23  NE1        0.0520  -18.0350   -2.6840 N.ar   21  TRP21      -0.2442
     24  CZ2       -0.2230  -15.5590   -2.2950 C.ar   21  TRP21       0.0191
     25  CZ3        1.1420  -14.2140   -3.8060 C.ar   21  TRP21       0.0001
     26  CH2        0.2070  -14.3240   -2.7450 C.ar   21  TRP21       0.0015
@<TRIPOS>BOND
     1    15    13    1
     2    16    14    1
     3    13    14    1
     4    17    18    1
     5    22    20   ar
     6    22    25   ar
     7    18    20   ar
     8    18    19   ar
     9    20    21   ar
    10    25    26   ar
    11    19    23   ar
    12    21    23   ar
    13    21    24   ar
    14    26    24   ar
    15    11     9    1
    16     9    10    1
    17     1     2    1
    18     2     4    1
    19     2     3    1
    20    10    12    1
    21     7     6   ar
    22     5     6    1
    23     6     8   ar
@<TRIPOS>MOLECULE
02228316B
 82 86 0 0 0
SMALL
GASTEIGER

@<TRIPOS>ATOM
      1 C           7.3990  -13.7506   -3.2920 C.3     1  LIG11       0.2491
      2 C           6.5092  -14.8612   -3.8140 C.2     1  LIG11       0.3556
      3 N           6.9826  -12.5634   -4.0772 N.2     1  LIG11      -0.0687
      4 C           8.8903  -14.0325   -3.5289 C.3     1  LIG11       0.0059
      5 C           7.2338  -13.4676   -1.8005 C.3     1  LIG11       0.0059
      6 N           5.7288  -14.2943   -4.7843 N.am    1  LIG11      -0.1529
      7 O           6.5170  -16.0265   -3.4503 O.2     1  LIG11      -0.2422
      8 C           6.0691  -12.9980   -4.8903 C.2     1  LIG11       0.2916
      9 C           9.5291  -14.0052   -2.1434 C.3     1  LIG11      -0.0481
     10 C           8.6330  -13.0761   -1.3428 C.3     1  LIG11      -0.0481
     11 C           4.8499  -15.0954   -5.6274 C.3     1  LIG11       0.1137
     12 C           5.4600  -12.0549   -5.8996 C.3     1  LIG11       0.0509
     13 C           3.6357  -15.6925   -4.9409 C.ar    1  LIG11      -0.0073
     14 C           6.3385  -11.8917   -7.1444 C.3     1  LIG11      -0.0424
     15 C           2.9862  -15.0902   -3.8614 C.ar    1  LIG11      -0.0491
     16 C           3.0677  -16.8587   -5.4592 C.ar    1  LIG11      -0.0544
     17 C           7.5984  -11.0569   -6.8802 C.3     1  LIG11      -0.0554
     18 C           1.8283  -15.6618   -3.2623 C.ar    1  LIG11      -0.0138
     19 C           1.9260  -17.4317   -4.8808 C.ar    1  LIG11      -0.0533
     20 C           8.3316  -10.7089   -8.1673 C.3     1  LIG11      -0.0653
     21 C           1.3143  -16.9017   -3.7343 C.ar    1  LIG11      -0.0106
     22 C           1.1590  -14.8309   -2.1783 C.3     1  LIG11       0.0732
     23 C           0.1342  -17.5983   -3.1426 C.ar    1  LIG11       0.0091
     24 O          -0.0418  -14.1639   -2.5773 O.3     1  LIG11      -0.3754
     25 C           0.1224  -18.8761   -2.5240 C.ar    1  LIG11       0.1162
     26 C          -1.1068  -16.9240   -3.1846 C.ar    1  LIG11      -0.0521
     27 C           0.0036  -13.3808   -3.7674 C.3     1  LIG11       0.0453
     28 S           1.5356  -19.9824   -2.4540 S.O2    1  LIG11       0.0741
     29 C          -1.0490  -19.3695   -1.9059 C.ar    1  LIG11      -0.0345
     30 C          -2.2597  -17.4125   -2.5620 C.ar    1  LIG11      -0.0611
     31 C           0.7587  -12.0784   -3.5928 C.3     1  LIG11      -0.0416
     32 N           2.5279  -19.2228   -1.3498 N.pl3   1  LIG11      -0.1965
     33 O           2.2215  -19.9531   -3.7288 O.2     1  LIG11      -0.1499
     34 O           1.1051  -21.2581   -1.9234 O.2     1  LIG11      -0.1499
     35 C          -2.2262  -18.6300   -1.9050 C.ar    1  LIG11      -0.0599
     36 C           2.1431  -19.0167   -0.0346 C.ar    1  LIG11       0.1837
     37 C           2.5866  -17.9458    0.7838 C.ar    1  LIG11       0.0342
     38 N           1.2927  -19.8068    0.6209 N.ar    1  LIG11      -0.0614
     39 C           1.9448  -18.1707    1.9846 C.ar    1  LIG11       0.1390
     40 C           3.4841  -16.8228    0.4393 C.3     1  LIG11      -0.0330
     41 O           1.1818  -19.2879    1.8886 O.2     1  LIG11      -0.3578
     42 C           1.9076  -17.4818    3.2860 C.3     1  LIG11      -0.0034
     43 H           9.0766  -14.9956   -4.0167 H       1  LIG11       0.0316
     44 H           9.3470  -13.2566   -4.1569 H       1  LIG11       0.0316
     45 H           6.5117  -12.6721   -1.5895 H       1  LIG11       0.0316
     46 H           6.9076  -14.3656   -1.2625 H       1  LIG11       0.0316
     47 H           9.5150  -15.0104   -1.7054 H       1  LIG11       0.0267
     48 H          10.5675  -13.6628   -2.1727 H       1  LIG11       0.0267
     49 H           8.8412  -12.0316   -1.6035 H       1  LIG11       0.0267
     50 H           8.7664  -13.1941   -0.2640 H       1  LIG11       0.0267
     51 H           4.5101  -14.5074   -6.4846 H       1  LIG11       0.0783
     52 H           5.4676  -15.9149   -6.0168 H       1  LIG11       0.0783
     53 H           4.4695  -12.4125   -6.1935 H       1  LIG11       0.0387
     54 H           5.3073  -11.0819   -5.4164 H       1  LIG11       0.0387
     55 H           6.6266  -12.8733   -7.5387 H       1  LIG11       0.0271
     56 H           5.7425  -11.3940   -7.9188 H       1  LIG11       0.0271
     57 H           3.3650  -14.1437   -3.4778 H       1  LIG11       0.0625
     58 H           3.5088  -17.3527   -6.3241 H       1  LIG11       0.0622
     59 H           7.3324  -10.1265   -6.3646 H       1  LIG11       0.0263
     60 H           8.2849  -11.6060   -6.2270 H       1  LIG11       0.0263
     61 H           1.5202  -18.3295   -5.3479 H       1  LIG11       0.0624
     62 H           7.7016  -10.1028   -8.8263 H       1  LIG11       0.0230
     63 H           9.2354  -10.1325   -7.9433 H       1  LIG11       0.0230
     64 H           8.6305  -11.6119   -8.7086 H       1  LIG11       0.0230
     65 H           0.9110  -15.4783   -1.3294 H       1  LIG11       0.0610
     66 H           1.8507  -14.0813   -1.7753 H       1  LIG11       0.0610
     67 H          -1.1889  -15.9727   -3.7052 H       1  LIG11       0.0624
     68 H           0.3932  -13.9585   -4.6114 H       1  LIG11       0.0557
     69 H          -1.0365  -13.1443   -4.0192 H       1  LIG11       0.0557
     70 H          -1.0458  -20.3339   -1.3976 H       1  LIG11       0.0637
     71 H          -3.1763  -16.8290   -2.5868 H       1  LIG11       0.0618
     72 H           1.8110  -12.2500   -3.3544 H       1  LIG11       0.0252
     73 H           0.7069  -11.4847   -4.5111 H       1  LIG11       0.0252
     74 H           0.3306  -11.4931   -2.7733 H       1  LIG11       0.0252
     75 H           3.2449  -18.6508   -1.7826 H       1  LIG11       0.1753
     76 H          -3.1117  -19.0122   -1.4040 H       1  LIG11       0.0618
     77 H           3.8571  -16.8943   -0.5861 H       1  LIG11       0.0280
     78 H           2.9462  -15.8731    0.5290 H       1  LIG11       0.0280
     79 H           4.3460  -16.7983    1.1119 H       1  LIG11       0.0280
     80 H           2.2674  -16.4530    3.1973 H       1  LIG11       0.0309
     81 H           0.8851  -17.4495    3.6758 H       1  LIG11       0.0309
     82 H           2.5360  -18.0068    4.0117 H       1  LIG11       0.0309
@<TRIPOS>BOND
     1     1     5    1
     2     1     4    1
     3     1     2    1
     4     1     3    1
     5     2     6   am
     6     2     7    2
     7     3     8    2
     8     4     9    1
     9     5    10    1
    10     6     8    1
    11     6    11    1
    12     8    12    1
    13     9    10    1
    14    11    13    1
    15    12    14    1
    16    13    15   ar
    17    13    16   ar
    18    14    17    1
    19    15    18   ar
    20    16    19   ar
    21    17    20    1
    22    18    21   ar
    23    18    22    1
    24    19    21   ar
    25    21    23    1
    26    22    24    1
    27    23    26   ar
    28    23    25   ar
    29    24    27    1
    30    25    29   ar
    31    25    28    1
    32    26    30   ar
    33    27    31    1
    34    28    34    2
    35    28    33    2
    36    28    32    1
    37    29    35   ar
    38    30    35   ar
    39    32    36    1
    40    36    37   ar
    41    36    38   ar
    42    37    39   ar
    43    37    40    1
    44    38    41   ar
    45    39    41   ar
    46    39    42    1
    47     4    43    1
    48     4    44    1
    49     5    45    1
    50     5    46    1
    51     9    47    1
    52     9    48    1
    53    10    49    1
    54    10    50    1
    55    11    51    1
    56    11    52    1
    57    12    53    1
    58    12    54    1
    59    14    55    1
    60    14    56    1
    61    15    57    1
    62    16    58    1
    63    17    59    1
    64    17    60    1
    65    19    61    1
    66    20    62    1
    67    20    63    1
    68    20    64    1
    69    22    65    1
    70    22    66    1
    71    26    67    1
    72    27    68    1
    73    27    69    1
    74    29    70    1
    75    30    71    1
    76    31    72    1
    77    31    73    1
    78    31    74    1
    79    32    75    1
    80    35    76    1
    81    40    77    1
    82    40    78    1
    83    40    79    1
    84    42    80    1
    85    42    81    1
    86    42    82    1
@<TRIPOS>MOLECULE
../1EDN/XRAY_17-21.pdb
 47 48 0 0 0
SMALL
GASTEIGER

@<TRIPOS>ATOM
      1  N          6.4500  -19.7300   -2.8460 N.3    17  LEU17      -0.1231
      2  CA         5.2640  -20.1680   -2.1160 C.3    17  LEU17       0.1693
      3  C          4.7010  -18.8060   -1.6720 C.2    17  LEU17       0.2592
      4  O          4.3760  -17.9800   -2.5270 O.2    17  LEU17      -0.2718
      5  CB         5.6570  -21.0170   -0.8850 C.3    17  LEU17       0.0284
      6  CG         5.4050  -22.5400   -0.8470 C.3    17  LEU17       0.0019
      7  CD1        6.1110  -23.2140    0.3150 C.3    17  LEU17       0.0001
      8  CD2        3.9240  -22.7940   -0.7690 C.3    17  LEU17       0.0001
      9  N          4.7270  -18.4910   -0.3800 N.am   18  ASP18      -0.1962
     10  CA         4.1720  -17.2010    0.0630 C.3    18  ASP18       0.1783
     11  C          4.7750  -15.8130   -0.3500 C.2    18  ASP18       0.2620
     12  O          4.1570  -14.7710   -0.0750 O.2    18  ASP18      -0.2715
     13  CB         3.8720  -17.2370    1.5730 C.3    18  ASP18       0.0728
     14  CG         2.4440  -17.7210    1.8880 C.2    18  ASP18       0.0526
     15  OD1        1.8320  -18.4410    1.0660 O.co2  18  ASP18      -0.5491
     16  OD2        1.9260  -17.3730    2.9700 O.co2  18  ASP18      -0.5491
     17  N          5.9570  -15.7420   -0.9630 N.am   19  ILE19      -0.1963
     18  CA         6.4450  -14.4030   -1.3510 C.3    19  ILE19       0.1727
     19  C          5.5760  -13.9960   -2.5290 C.2    19  ILE19       0.2616
     20  O          4.8370  -13.0080   -2.4770 O.2    19  ILE19      -0.2715
     21  CB         7.9140  -14.3690   -1.8400 C.3    19  ILE19       0.0290
     22  CG1        8.8760  -14.8240   -0.7490 C.3    19  ILE19       0.0022
     23  CG2        8.2810  -12.9320   -2.2380 C.3    19  ILE19       0.0023
     24  CD1        9.3280  -13.7050    0.1860 C.3    19  ILE19       0.0001
     25  N          5.7170  -14.7750   -3.5990 N.am   20  ILE20      -0.1963
     26  CA         4.9770  -14.6140   -4.8450 C.3    20  ILE20       0.1727
     27  C          4.7560  -16.0550   -5.2510 C.2    20  ILE20       0.2615
     28  O          5.5820  -16.9240   -4.9410 O.2    20  ILE20      -0.2715
     29  CB         5.8140  -13.8870   -5.9550 C.3    20  ILE20       0.0290
     30  CG1        5.9530  -12.3980   -5.6400 C.3    20  ILE20       0.0022
     31  CG2        5.1640  -14.0490   -7.3150 C.3    20  ILE20       0.0023
     32  CD1        6.8340  -11.6390   -6.6010 C.3    20  ILE20       0.0001
     33  N          3.6520  -16.3070   -5.9350 N.am   21  TRP21      -0.1988
     34  CA         3.3300  -17.6370   -6.4010 C.3    21  TRP21       0.1456
     35  C          2.5650  -17.6270   -7.7180 C.2    21  TRP21       0.1166
     36  O          1.8980  -18.6320   -8.0750 O.co2  21  TRP21      -0.3065
     37  CB         2.6690  -18.5180   -5.3120 C.3    21  TRP21       0.0562
     38  CG         1.5690  -17.9980   -4.3600 C.ar   21  TRP21       0.0005
     39  CD1        0.7990  -18.7930   -3.5490 C.ar   21  TRP21       0.0946
     40  CD2        1.2480  -16.6350   -3.9890 C.ar   21  TRP21       0.0152
     41  CE2        0.3020  -16.7070   -2.9250 C.ar   21  TRP21       0.0810
     42  CE3        1.6680  -15.3700   -4.4360 C.ar   21  TRP21       0.0012
     43  NE1        0.0520  -18.0350   -2.6840 N.ar   21  TRP21      -0.2442
     44  CZ2       -0.2230  -15.5590   -2.2950 C.ar   21  TRP21       0.0191
     45  CZ3        1.1420  -14.2140   -3.8060 C.ar   21  TRP21       0.0001
     46  CH2        0.2070  -14.3240   -2.7450 C.ar   21  TRP21       0.0015
     47  OXT        2.7400  -16.6140   -8.4280 O.co2  21  TRP21      -0.8460
@<TRIPOS>BOND
     1    47    35   ar
     2    36    35   ar
     3    35    34    1
     4    31    29    1
     5    32    30    1
     6    34    33    1
     7    34    37    1
     8    29    30    1
     9    29    26    1
    10    33    27   am
    11    37    38    1
    12    27    28    2
    13    27    26    1
    14    26    25    1
    15    42    40   ar
    16    42    45   ar
    17    38    40   ar
    18    38    39   ar
    19    40    41   ar
    20    45    46   ar
    21    25    19   am
    22    39    43   ar
    23    41    43   ar
    24    41    44   ar
    25     1     2    1
    26    46    44   ar
    27    19    20    2
    28    19    18    1
    29     4     3    2
    30    23    21    1
    31     2     3    1
    32     2     5    1
    33    21    18    1
    34    21    22    1
    35     3     9   am
    36    18    17    1
    37    17    11   am
    38     5     6    1
    39     6     8    1
    40     6     7    1
    41    22    24    1
    42     9    10    1
    43    11    12    2
    44    11    10    1
    45    10    13    1
    46    15    14   ar
    47    13    14    1
    48    14    16   ar
