@<TRIPOS>MOLECULE
../1EDN/XRAY_17-21_NOBACKBONE.pdb
 26 23 0 0 0
SMALL
GASTEIGER

@<TRIPOS>ATOM
      1  CB         5.6570  -21.0170   -0.8850 C.3    17  LEU17       0.0000
      2  CG         5.4050  -22.5400   -0.8470 C.3    17  LEU17       0.0000
      3  CD1        6.1110  -23.2140    0.3150 C.3    17  LEU17       0.0000
      4  CD2        3.9240  -22.7940   -0.7690 C.3    17  LEU17       0.0000
      5  CB         3.8720  -17.2370    1.5730 C.3    18  ASP18       0.0476
      6  CG         2.4440  -17.7210    1.8880 C.2    18  ASP18       0.0507
      7  OD1        1.8320  -18.4410    1.0660 O.co2  18  ASP18      -0.5492
      8  OD2        1.9260  -17.3730    2.9700 O.co2  18  ASP18      -0.5492
      9  CB         7.9140  -14.3690   -1.8400 C.3    19  ILE19       0.0000
     10  CG1        8.8760  -14.8240   -0.7490 C.3    19  ILE19       0.0000
     11  CG2        8.2810  -12.9320   -2.2380 C.3    19  ILE19       0.0000
     12  CD1        9.3280  -13.7050    0.1860 C.3    19  ILE19       0.0000
     13  CB         5.8140  -13.8870   -5.9550 C.3    20  ILE20       0.0000
     14  CG1        5.9530  -12.3980   -5.6400 C.3    20  ILE20       0.0000
     15  CG2        5.1640  -14.0490   -7.3150 C.3    20  ILE20       0.0000
     16  CD1        6.8340  -11.6390   -6.6010 C.3    20  ILE20       0.0000
     17  CB         2.6690  -18.5180   -5.3120 C.3    21  TRP21       0.0327
     18  CG         1.5690  -17.9980   -4.3600 C.ar   21  TRP21      -0.0013
     19  CD1        0.7990  -18.7930   -3.5490 C.ar   21  TRP21       0.0946
     20  CD2        1.2480  -16.6350   -3.9890 C.ar   21  TRP21       0.0152
     21  CE2        0.3020  -16.7070   -2.9250 C.ar   21  TRP21       0.0810
     22  CE3        1.6680  -15.3700   -4.4360 C.ar   21  TRP21       0.0012
     23  NE1        0.0520  -18.0350   -2.6840 N.ar   21  TRP21      -0.2442
     24  CZ2       -0.2230  -15.5590   -2.2950 C.ar   21  TRP21       0.0191
     25  CZ3        1.1420  -14.2140   -3.8060 C.ar   21  TRP21       0.0001
     26  CH2        0.2070  -14.3240   -2.7450 C.ar   21  TRP21       0.0015
@<TRIPOS>BOND
     1    15    13    1
     2    16    14    1
     3    13    14    1
     4    17    18    1
     5    22    20   ar
     6    22    25   ar
     7    18    20   ar
     8    18    19   ar
     9    20    21   ar
    10    25    26   ar
    11    19    23   ar
    12    21    23   ar
    13    21    24   ar
    14    26    24   ar
    15    11     9    1
    16     9    10    1
    17     1     2    1
    18     2     4    1
    19     2     3    1
    20    10    12    1
    21     7     6   ar
    22     5     6    1
    23     6     8   ar
@<TRIPOS>MOLECULE
*****
 67 70 0 0 0
SMALL
GASTEIGER

@<TRIPOS>ATOM
      1 C           4.7780  -21.5255    0.6801 C.ar    1  LIG11       0.0483
      2 C           5.3595  -22.4338   -0.1727 C.ar    1  LIG11       0.0543
      3 C           4.5685  -22.8603   -1.2135 C.ar    1  LIG11       0.0483
      4 N           3.3040  -22.4318   -1.4134 N.ar    1  LIG11      -0.2022
      5 N           3.5200  -21.0603    0.5271 N.ar    1  LIG11      -0.2022
      6 C          -1.9180  -15.7431   -1.2907 C.ar    1  LIG11      -0.0504
      7 C          -0.6294  -15.2081   -1.2160 C.ar    1  LIG11      -0.0583
      8 C           0.3893  -15.6735   -2.0589 C.ar    1  LIG11      -0.0535
      9 C           0.1491  -16.6683   -3.0156 C.ar    1  LIG11      -0.0094
     10 C          -1.1549  -17.1993   -3.0736 C.ar    1  LIG11      -0.0535
     11 C          -2.1687  -16.7566   -2.2163 C.ar    1  LIG11      -0.0583
     12 C           6.3428  -13.4991   -6.2085 C.ar    1  LIG11      -0.0561
     13 C           5.4144  -14.1080   -5.3520 C.ar    1  LIG11      -0.0348
     14 C           4.1240  -13.5961   -5.2574 C.ar    1  LIG11       0.1086
     15 C           3.7523  -12.4867   -6.0168 C.ar    1  LIG11      -0.0348
     16 C           4.6840  -11.8847   -6.8691 C.ar    1  LIG11      -0.0561
     17 C           7.0405  -11.6223   -7.8492 C.3     1  LIG11       0.0132
     18 C           6.0017  -12.3712   -6.9810 C.ar    1  LIG11      -0.0394
     19 C           7.4713  -10.3565   -7.0764 C.3     1  LIG11      -0.0537
     20 C           6.4580  -11.1811   -9.2234 C.3     1  LIG11       0.0533
     21 C           8.3118  -12.4561   -8.1372 C.3     1  LIG11      -0.0537
     22 O           6.0971  -12.2935  -10.0388 O.3     1  LIG11      -0.3942
     23 S           2.9877  -14.2054   -4.0246 S.O2    1  LIG11       0.0735
     24 O           3.7087  -15.1365   -3.1813 O.2     1  LIG11      -0.1499
     25 O           2.3488  -13.0343   -3.4641 O.2     1  LIG11      -0.1499
     26 N           1.8178  -15.0236   -4.9520 N.pl3   1  LIG11      -0.1988
     27 C           1.2034  -17.1888   -3.9126 C.ar    1  LIG11       0.0847
     28 C           1.5286  -18.5400   -3.9765 C.ar    1  LIG11       0.2276
     29 N           2.3739  -19.0874   -4.8774 N.ar    1  LIG11      -0.2008
     30 C           2.9507  -18.2394   -5.7316 C.ar    1  LIG11       0.1219
     31 N           2.7631  -16.9182   -5.7713 N.ar    1  LIG11      -0.2186
     32 C           1.9056  -16.4394   -4.8515 C.ar    1  LIG11       0.1524
     33 C          -2.9867  -15.2940   -0.3390 C.3     1  LIG11      -0.0397
     34 O           0.9325  -19.3788   -3.0496 O.3     1  LIG11      -0.4724
     35 C           1.3586  -20.7434   -3.1133 C.3     1  LIG11       0.1252
     36 C           0.8782  -21.4584   -1.8470 C.3     1  LIG11       0.1267
     37 O           1.5729  -21.0113   -0.6771 O.3     1  LIG11      -0.4590
     38 C           2.8376  -21.5329   -0.5267 C.ar    1  LIG11       0.3180
     39 BR          7.1155  -23.0515    0.0654 Br      1  LIG11      -0.0472
     40 H           5.3111  -21.1241    1.5367 H       1  LIG11       0.0843
     41 H           4.9294  -23.5760   -1.9459 H       1  LIG11       0.0843
     42 H          -0.3974  -14.4316   -0.4906 H       1  LIG11       0.0620
     43 H           1.3821  -15.2545   -1.9248 H       1  LIG11       0.0624
     44 H          -1.3915  -17.9916   -3.7814 H       1  LIG11       0.0624
     45 H          -3.1522  -17.2169   -2.2744 H       1  LIG11       0.0620
     46 H           7.3483  -13.9088   -6.2220 H       1  LIG11       0.0621
     47 H           5.7271  -14.9491   -4.7356 H       1  LIG11       0.0637
     48 H           2.7593  -12.0506   -5.9157 H       1  LIG11       0.0637
     49 H           4.3671  -10.9923   -7.4051 H       1  LIG11       0.0621
     50 H           7.9036  -10.6130   -6.1019 H       1  LIG11       0.0239
     51 H           8.2250   -9.7885   -7.6341 H       1  LIG11       0.0239
     52 H           6.6246   -9.6853   -6.8923 H       1  LIG11       0.0239
     53 H           5.5831  -10.5308   -9.1258 H       1  LIG11       0.0566
     54 H           7.2045  -10.6054   -9.7838 H       1  LIG11       0.0566
     55 H           8.0686  -13.4201   -8.5987 H       1  LIG11       0.0239
     56 H           8.9847  -11.9227   -8.8208 H       1  LIG11       0.0239
     57 H           8.8863  -12.6532   -7.2249 H       1  LIG11       0.0239
     58 H           5.4883  -12.8476   -9.5192 H       1  LIG11       0.2094
     59 H           1.9422  -14.7872   -5.9348 H       1  LIG11       0.1753
     60 H           3.6349  -18.6644   -6.4582 H       1  LIG11       0.1049
     61 H          -2.8587  -14.2391   -0.0782 H       1  LIG11       0.0278
     62 H          -3.9790  -15.4013   -0.7863 H       1  LIG11       0.0278
     63 H          -2.9455  -15.8930    0.5768 H       1  LIG11       0.0278
     64 H           0.8955  -21.2136   -3.9886 H       1  LIG11       0.0731
     65 H           2.4476  -20.8039   -3.1909 H       1  LIG11       0.0731
     66 H          -0.1770  -21.2143   -1.6777 H       1  LIG11       0.0732
     67 H           0.9339  -22.5487   -1.9478 H       1  LIG11       0.0732
@<TRIPOS>BOND
     1     1     2   ar
     2     2     3   ar
     3     2    39    1
     4     3     4   ar
     5     4    38   ar
     6     5     1   ar
     7     6     7   ar
     8     6    33    1
     9     7     8   ar
    10     8     9   ar
    11     9    10   ar
    12    10    11   ar
    13    11     6   ar
    14    12    13   ar
    15    13    14   ar
    16    14    15   ar
    17    15    16   ar
    18    16    18   ar
    19    17    18    1
    20    17    21    1
    21    17    20    1
    22    17    19    1
    23    18    12   ar
    24    20    22    1
    25    23    26    1
    26    23    25    2
    27    23    24    2
    28    23    14    1
    29    26    32    1
    30    27    28   ar
    31    27     9    1
    32    28    29   ar
    33    29    30   ar
    34    30    31   ar
    35    31    32   ar
    36    32    27   ar
    37    34    35    1
    38    34    28    1
    39    35    36    1
    40    36    37    1
    41    37    38    1
    42    38     5   ar
    43     1    40    1
    44     3    41    1
    45     7    42    1
    46     8    43    1
    47    10    44    1
    48    11    45    1
    49    12    46    1
    50    13    47    1
    51    15    48    1
    52    16    49    1
    53    19    50    1
    54    19    51    1
    55    19    52    1
    56    20    53    1
    57    20    54    1
    58    21    55    1
    59    21    56    1
    60    21    57    1
    61    22    58    1
    62    26    59    1
    63    30    60    1
    64    33    61    1
    65    33    62    1
    66    33    63    1
    67    35    64    1
    68    35    65    1
    69    36    66    1
    70    36    67    1
@<TRIPOS>MOLECULE
../1EDN/XRAY_17-21.pdb
 47 48 0 0 0
SMALL
GASTEIGER

@<TRIPOS>ATOM
      1  N          6.4500  -19.7300   -2.8460 N.3    17  LEU17      -0.1231
      2  CA         5.2640  -20.1680   -2.1160 C.3    17  LEU17       0.1693
      3  C          4.7010  -18.8060   -1.6720 C.2    17  LEU17       0.2592
      4  O          4.3760  -17.9800   -2.5270 O.2    17  LEU17      -0.2718
      5  CB         5.6570  -21.0170   -0.8850 C.3    17  LEU17       0.0284
      6  CG         5.4050  -22.5400   -0.8470 C.3    17  LEU17       0.0019
      7  CD1        6.1110  -23.2140    0.3150 C.3    17  LEU17       0.0001
      8  CD2        3.9240  -22.7940   -0.7690 C.3    17  LEU17       0.0001
      9  N          4.7270  -18.4910   -0.3800 N.am   18  ASP18      -0.1962
     10  CA         4.1720  -17.2010    0.0630 C.3    18  ASP18       0.1783
     11  C          4.7750  -15.8130   -0.3500 C.2    18  ASP18       0.2620
     12  O          4.1570  -14.7710   -0.0750 O.2    18  ASP18      -0.2715
     13  CB         3.8720  -17.2370    1.5730 C.3    18  ASP18       0.0728
     14  CG         2.4440  -17.7210    1.8880 C.2    18  ASP18       0.0526
     15  OD1        1.8320  -18.4410    1.0660 O.co2  18  ASP18      -0.5491
     16  OD2        1.9260  -17.3730    2.9700 O.co2  18  ASP18      -0.5491
     17  N          5.9570  -15.7420   -0.9630 N.am   19  ILE19      -0.1963
     18  CA         6.4450  -14.4030   -1.3510 C.3    19  ILE19       0.1727
     19  C          5.5760  -13.9960   -2.5290 C.2    19  ILE19       0.2616
     20  O          4.8370  -13.0080   -2.4770 O.2    19  ILE19      -0.2715
     21  CB         7.9140  -14.3690   -1.8400 C.3    19  ILE19       0.0290
     22  CG1        8.8760  -14.8240   -0.7490 C.3    19  ILE19       0.0022
     23  CG2        8.2810  -12.9320   -2.2380 C.3    19  ILE19       0.0023
     24  CD1        9.3280  -13.7050    0.1860 C.3    19  ILE19       0.0001
     25  N          5.7170  -14.7750   -3.5990 N.am   20  ILE20      -0.1963
     26  CA         4.9770  -14.6140   -4.8450 C.3    20  ILE20       0.1727
     27  C          4.7560  -16.0550   -5.2510 C.2    20  ILE20       0.2615
     28  O          5.5820  -16.9240   -4.9410 O.2    20  ILE20      -0.2715
     29  CB         5.8140  -13.8870   -5.9550 C.3    20  ILE20       0.0290
     30  CG1        5.9530  -12.3980   -5.6400 C.3    20  ILE20       0.0022
     31  CG2        5.1640  -14.0490   -7.3150 C.3    20  ILE20       0.0023
     32  CD1        6.8340  -11.6390   -6.6010 C.3    20  ILE20       0.0001
     33  N          3.6520  -16.3070   -5.9350 N.am   21  TRP21      -0.1988
     34  CA         3.3300  -17.6370   -6.4010 C.3    21  TRP21       0.1456
     35  C          2.5650  -17.6270   -7.7180 C.2    21  TRP21       0.1166
     36  O          1.8980  -18.6320   -8.0750 O.co2  21  TRP21      -0.3065
     37  CB         2.6690  -18.5180   -5.3120 C.3    21  TRP21       0.0562
     38  CG         1.5690  -17.9980   -4.3600 C.ar   21  TRP21       0.0005
     39  CD1        0.7990  -18.7930   -3.5490 C.ar   21  TRP21       0.0946
     40  CD2        1.2480  -16.6350   -3.9890 C.ar   21  TRP21       0.0152
     41  CE2        0.3020  -16.7070   -2.9250 C.ar   21  TRP21       0.0810
     42  CE3        1.6680  -15.3700   -4.4360 C.ar   21  TRP21       0.0012
     43  NE1        0.0520  -18.0350   -2.6840 N.ar   21  TRP21      -0.2442
     44  CZ2       -0.2230  -15.5590   -2.2950 C.ar   21  TRP21       0.0191
     45  CZ3        1.1420  -14.2140   -3.8060 C.ar   21  TRP21       0.0001
     46  CH2        0.2070  -14.3240   -2.7450 C.ar   21  TRP21       0.0015
     47  OXT        2.7400  -16.6140   -8.4280 O.co2  21  TRP21      -0.8460
@<TRIPOS>BOND
     1    47    35   ar
     2    36    35   ar
     3    35    34    1
     4    31    29    1
     5    32    30    1
     6    34    33    1
     7    34    37    1
     8    29    30    1
     9    29    26    1
    10    33    27   am
    11    37    38    1
    12    27    28    2
    13    27    26    1
    14    26    25    1
    15    42    40   ar
    16    42    45   ar
    17    38    40   ar
    18    38    39   ar
    19    40    41   ar
    20    45    46   ar
    21    25    19   am
    22    39    43   ar
    23    41    43   ar
    24    41    44   ar
    25     1     2    1
    26    46    44   ar
    27    19    20    2
    28    19    18    1
    29     4     3    2
    30    23    21    1
    31     2     3    1
    32     2     5    1
    33    21    18    1
    34    21    22    1
    35     3     9   am
    36    18    17    1
    37    17    11   am
    38     5     6    1
    39     6     8    1
    40     6     7    1
    41    22    24    1
    42     9    10    1
    43    11    12    2
    44    11    10    1
    45    10    13    1
    46    15    14   ar
    47    13    14    1
    48    14    16   ar
