@<TRIPOS>MOLECULE
../1EDN/3STEPMIN_17-21.pdb
 47 48 0 0 0
SMALL
GASTEIGER

@<TRIPOS>ATOM
      1  N         -5.4290    0.8830   -1.1740 N.3    17  LEU17      -0.1231
      2  CA        -6.8230    0.6710   -0.7980 C.3    17  LEU17       0.1693
      3  CB        -6.9230   -0.4370    0.2770 C.3    17  LEU17       0.0284
      4  CG        -6.4950   -1.8450   -0.1910 C.3    17  LEU17       0.0019
      5  CD1       -6.5150   -2.8060    0.9980 C.3    17  LEU17       0.0001
      6  CD2       -7.4310   -2.4140   -1.2600 C.3    17  LEU17       0.0001
      7  C         -7.3990    2.0370   -0.3760 C.2    17  LEU17       0.2592
      8  O         -7.4670    2.9330   -1.2040 O.2    17  LEU17      -0.2718
      9  N         -7.7380    2.2560    0.8970 N.am   18  ASP18      -0.1960
     10  CA        -8.5130    3.4280    1.3730 C.3    18  ASP18       0.1840
     11  CB        -9.0510    3.1310    2.7840 C.3    18  ASP18       0.1450
     12  CG       -10.5470    3.4340    2.8500 C.2    18  ASP18       0.3671
     13  OD1      -11.3300    2.4930    2.5610 O.co2  18  ASP18      -0.2456
     14  OD2      -10.9050    4.5930    3.1470 O.co2  18  ASP18      -0.2456
     15  C         -7.8270    4.8120    1.2910 C.2    18  ASP18       0.2622
     16  O         -8.3890    5.8210    1.7350 O.2    18  ASP18      -0.2715
     17  N         -6.6250    4.8510    0.7010 N.am   19  ILE19      -0.1963
     18  CA        -5.9180    6.0210    0.1680 C.3    19  ILE19       0.1727
     19  CB        -4.3960    5.7260    0.0740 C.3    19  ILE19       0.0290
     20  CG2       -3.6150    6.9530   -0.4300 C.3    19  ILE19       0.0023
     21  CG1       -3.7730    5.2100    1.3920 C.3    19  ILE19       0.0022
     22  CD1       -3.8620    6.1700    2.5820 C.3    19  ILE19       0.0001
     23  C         -6.4970    6.4050   -1.2110 C.2    19  ILE19       0.2616
     24  O         -7.0070    7.5130   -1.3720 O.2    19  ILE19      -0.2715
     25  N         -6.3950    5.4980   -2.1940 N.am   20  ILE20      -0.1963
     26  CA        -6.9990    5.5490   -3.5400 C.3    20  ILE20       0.1727
     27  CB        -6.0900    6.2460   -4.5940 C.3    20  ILE20       0.0290
     28  CG2       -6.7980    6.2490   -5.9680 C.3    20  ILE20       0.0023
     29  CG1       -5.7140    7.6970   -4.2070 C.3    20  ILE20       0.0022
     30  CD1       -4.7810    8.4150   -5.1910 C.3    20  ILE20       0.0001
     31  C         -7.3180    4.1070   -3.9880 C.2    20  ILE20       0.2617
     32  O         -6.4020    3.3070   -4.2100 O.2    20  ILE20      -0.2715
     33  N         -8.6100    3.8210   -4.1620 N.am   21  TRP21      -0.1938
     34  CA        -9.2240    2.5950   -4.7020 C.3    21  TRP21       0.2021
     35  CB        -9.7020    1.6830   -3.5450 C.3    21  TRP21       0.0612
     36  CG       -10.4970    2.2370   -2.3850 C.ar   21  TRP21       0.0007
     37  CD1      -10.6860    1.5470   -1.2340 C.ar   21  TRP21       0.0946
     38  NE1      -11.3350    2.3340   -0.3040 N.ar   21  TRP21      -0.2442
     39  CE2      -11.5720    3.5950   -0.7990 C.ar   21  TRP21       0.0810
     40  CZ2      -12.0950    4.7480   -0.2000 C.ar   21  TRP21       0.0191
     41  CH2      -12.2340    5.9130   -0.9670 C.ar   21  TRP21       0.0015
     42  CZ3      -11.8800    5.8920   -2.3260 C.ar   21  TRP21       0.0001
     43  CE3      -11.3480    4.7280   -2.9100 C.ar   21  TRP21       0.0012
     44  CD2      -11.1270    3.5500   -2.1550 C.ar   21  TRP21       0.0152
     45  C        -10.3230    2.8760   -5.7330 C.2    21  TRP21       0.3845
     46  O        -11.0800    1.9620   -6.0950 O.co2  21  TRP21      -0.2437
     47  OXT      -10.4270    4.0430   -6.2080 O.co2  21  TRP21      -0.2437
@<TRIPOS>BOND
     1    47    45   ar
     2    46    45   ar
     3    28    27    1
     4    45    34    1
     5    30    29    1
     6    34    33    1
     7    34    35    1
     8    27    29    1
     9    27    26    1
    10    32    31    2
    11    33    31   am
    12    31    26    1
    13    35    36    1
    14    26    25    1
    15    43    42   ar
    16    43    44   ar
    17    36    44   ar
    18    36    37   ar
    19    42    41   ar
    20    25    23   am
    21    44    39   ar
    22    24    23    2
    23     6     4    1
    24    37    38   ar
    25    23    18    1
    26     8     7    2
    27     1     2    1
    28    41    40   ar
    29    39    38   ar
    30    39    40   ar
    31     2     7    1
    32     2     3    1
    33    20    19    1
    34     7     9   am
    35     4     3    1
    36     4     5    1
    37    19    18    1
    38    19    21    1
    39    18    17    1
    40    17    15   am
    41     9    10    1
    42    15    10    1
    43    15    16    2
    44    10    11    1
    45    21    22    1
    46    13    12   ar
    47    11    12    1
    48    12    14   ar
@<TRIPOS>MOLECULE
16219006
 44 47 0 0 0
SMALL
GASTEIGER

@<TRIPOS>ATOM
      1 O          -3.3910    4.9182   -4.2159 O.2     1  PRO11      -0.2738
      2 O          -4.9669    6.6350   -0.4503 O.2     5  ASP55      -0.2735
      3 O          -6.9068    4.0838   -1.1361 O.2     2  VAL22      -0.2738
      4 O          -1.7732    3.4036    1.5761 O.2     4  TRP44      -0.2738
      5 O          -3.9834    1.1399   -1.1394 O.2     3  LEU33      -0.2738
      6 OD1        -3.2054    6.9538    4.2255 O.co2   5  ASP55      -0.5497
      7 OD2        -4.2845    4.9360    4.1421 O.co2   5  ASP55      -0.5497
      8 N          -2.8669    6.1391   -1.1099 N.am    1  PRO11      -0.2884
      9 N          -5.2124    5.4499   -2.9366 N.am    2  VAL22      -0.3022
     10 N          -3.8773    4.2452    1.1971 N.am    5  ASP55      -0.3021
     11 N          -6.3179    2.1816   -2.2625 N.am    3  LEU33      -0.3025
     12 N          -4.9022    1.7338    0.8804 N.am    4  TRP44      -0.3022
     13 NE1        -4.8852   -1.9987    3.2934 N.ar    4  TRP44      -0.3604
     14 CA         -3.1014    6.6203   -2.4733 C.3     1  PRO11       0.1023
     15 CB         -1.6941    6.8668   -3.0197 C.3     1  PRO11      -0.0243
     16 CG         -0.8458    5.8347   -2.2862 C.3     1  PRO11      -0.0350
     17 CD         -1.4720    5.7873   -0.8995 C.3     1  PRO11       0.0156
     18 C          -3.8861    5.5701   -3.2982 C.2     1  PRO11       0.2342
     19 C          -3.8404    6.2304   -0.1361 C.2     5  ASP55       0.2369
     20 CA         -6.0525    4.3540   -3.4056 C.3     2  VAL22       0.1017
     21 CA         -3.5338    5.6653    1.2714 C.3     5  ASP55       0.1047
     22 CB         -7.2447    4.8613   -4.2456 C.3     2  VAL22      -0.0197
     23 CA         -6.3909    1.3804   -1.0396 C.3     3  LEU33       0.0996
     24 C          -6.4737    3.5518   -2.1570 C.2     2  VAL22       0.2342
     25 CB         -4.4083    6.3818    2.2933 C.3     5  ASP55       0.0138
     26 CA         -3.6159    1.8287    1.5863 C.3     4  TRP44       0.1034
     27 CB         -6.8152   -0.0566   -1.3638 C.3     3  LEU33      -0.0236
     28 CG         -6.9387   -0.9844   -0.1379 C.3     3  LEU33      -0.0446
     29 C          -2.9807    3.2254    1.4207 C.2     4  TRP44       0.2343
     30 CB         -3.7766    1.5251    3.0844 C.3     4  TRP44       0.0013
     31 C          -4.9691    1.4026   -0.4499 C.2     3  LEU33       0.2340
     32 CG1        -8.1945    5.7906   -3.4847 C.3     2  VAL22      -0.0605
     33 CG2        -8.0333    3.7013   -4.8595 C.3     2  VAL22      -0.0605
     34 CG         -4.3895    0.1762    3.3705 C.ar    4  TRP44      -0.0201
     35 CG         -3.9050    6.0544    3.6867 C.2     5  ASP55       0.0440
     36 CD1        -7.9786   -0.4931    0.8702 C.3     3  LEU33      -0.0626
     37 CD2        -7.2913   -2.4022   -0.5936 C.3     3  LEU33      -0.0626
     38 CD2        -5.4074   -0.1051    4.3405 C.ar    4  TRP44       0.0029
     39 CD1        -4.0805   -1.0275    2.7638 C.ar    4  TRP44       0.0060
     40 CE2        -5.7036   -1.4666    4.2603 C.ar    4  TRP44       0.0467
     41 CE3        -6.1059    0.6782    5.2823 C.ar    4  TRP44      -0.0523
     42 CZ2        -6.6689   -2.0827    5.0666 C.ar    4  TRP44      -0.0378
     43 CZ3        -7.0680    0.0765    6.1028 C.ar    4  TRP44      -0.0611
     44 CH2        -7.3458   -1.2836    5.9925 C.ar    4  TRP44      -0.0598
@<TRIPOS>BOND
     1     1    18    2
     2     2    19    2
     3     3    24    2
     4     4    29    2
     5     5    31    2
     6     6    35   ar
     7     7    35   ar
     8     8    14    1
     9     8    17    1
    10     8    19   am
    11     9    18   am
    12     9    20    1
    13    10    21    1
    14    10    29   am
    15    11    23    1
    16    11    24   am
    17    12    26    1
    18    12    31   am
    19    13    39   ar
    20    13    40   ar
    21    14    15    1
    22    14    18    1
    23    15    16    1
    24    16    17    1
    25    19    21    1
    26    20    22    1
    27    20    24    1
    28    21    25    1
    29    22    32    1
    30    22    33    1
    31    23    27    1
    32    23    31    1
    33    25    35    1
    34    26    29    1
    35    26    30    1
    36    27    28    1
    37    28    36    1
    38    28    37    1
    39    30    34    1
    40    34    38   ar
    41    34    39   ar
    42    38    40   ar
    43    38    41   ar
    44    40    42   ar
    45    41    43   ar
    46    42    44   ar
    47    43    44   ar
