@<TRIPOS>MOLECULE
../1EDN/3STEPMIN_17-21.pdb
 47 48 0 0 0
SMALL
GASTEIGER

@<TRIPOS>ATOM
      1  N         -5.4290    0.8830   -1.1740 N.3    17  LEU17      -0.1231
      2  CA        -6.8230    0.6710   -0.7980 C.3    17  LEU17       0.1693
      3  CB        -6.9230   -0.4370    0.2770 C.3    17  LEU17       0.0284
      4  CG        -6.4950   -1.8450   -0.1910 C.3    17  LEU17       0.0019
      5  CD1       -6.5150   -2.8060    0.9980 C.3    17  LEU17       0.0001
      6  CD2       -7.4310   -2.4140   -1.2600 C.3    17  LEU17       0.0001
      7  C         -7.3990    2.0370   -0.3760 C.2    17  LEU17       0.2592
      8  O         -7.4670    2.9330   -1.2040 O.2    17  LEU17      -0.2718
      9  N         -7.7380    2.2560    0.8970 N.am   18  ASP18      -0.1960
     10  CA        -8.5130    3.4280    1.3730 C.3    18  ASP18       0.1840
     11  CB        -9.0510    3.1310    2.7840 C.3    18  ASP18       0.1450
     12  CG       -10.5470    3.4340    2.8500 C.2    18  ASP18       0.3671
     13  OD1      -11.3300    2.4930    2.5610 O.co2  18  ASP18      -0.2456
     14  OD2      -10.9050    4.5930    3.1470 O.co2  18  ASP18      -0.2456
     15  C         -7.8270    4.8120    1.2910 C.2    18  ASP18       0.2622
     16  O         -8.3890    5.8210    1.7350 O.2    18  ASP18      -0.2715
     17  N         -6.6250    4.8510    0.7010 N.am   19  ILE19      -0.1963
     18  CA        -5.9180    6.0210    0.1680 C.3    19  ILE19       0.1727
     19  CB        -4.3960    5.7260    0.0740 C.3    19  ILE19       0.0290
     20  CG2       -3.6150    6.9530   -0.4300 C.3    19  ILE19       0.0023
     21  CG1       -3.7730    5.2100    1.3920 C.3    19  ILE19       0.0022
     22  CD1       -3.8620    6.1700    2.5820 C.3    19  ILE19       0.0001
     23  C         -6.4970    6.4050   -1.2110 C.2    19  ILE19       0.2616
     24  O         -7.0070    7.5130   -1.3720 O.2    19  ILE19      -0.2715
     25  N         -6.3950    5.4980   -2.1940 N.am   20  ILE20      -0.1963
     26  CA        -6.9990    5.5490   -3.5400 C.3    20  ILE20       0.1727
     27  CB        -6.0900    6.2460   -4.5940 C.3    20  ILE20       0.0290
     28  CG2       -6.7980    6.2490   -5.9680 C.3    20  ILE20       0.0023
     29  CG1       -5.7140    7.6970   -4.2070 C.3    20  ILE20       0.0022
     30  CD1       -4.7810    8.4150   -5.1910 C.3    20  ILE20       0.0001
     31  C         -7.3180    4.1070   -3.9880 C.2    20  ILE20       0.2617
     32  O         -6.4020    3.3070   -4.2100 O.2    20  ILE20      -0.2715
     33  N         -8.6100    3.8210   -4.1620 N.am   21  TRP21      -0.1938
     34  CA        -9.2240    2.5950   -4.7020 C.3    21  TRP21       0.2021
     35  CB        -9.7020    1.6830   -3.5450 C.3    21  TRP21       0.0612
     36  CG       -10.4970    2.2370   -2.3850 C.ar   21  TRP21       0.0007
     37  CD1      -10.6860    1.5470   -1.2340 C.ar   21  TRP21       0.0946
     38  NE1      -11.3350    2.3340   -0.3040 N.ar   21  TRP21      -0.2442
     39  CE2      -11.5720    3.5950   -0.7990 C.ar   21  TRP21       0.0810
     40  CZ2      -12.0950    4.7480   -0.2000 C.ar   21  TRP21       0.0191
     41  CH2      -12.2340    5.9130   -0.9670 C.ar   21  TRP21       0.0015
     42  CZ3      -11.8800    5.8920   -2.3260 C.ar   21  TRP21       0.0001
     43  CE3      -11.3480    4.7280   -2.9100 C.ar   21  TRP21       0.0012
     44  CD2      -11.1270    3.5500   -2.1550 C.ar   21  TRP21       0.0152
     45  C        -10.3230    2.8760   -5.7330 C.2    21  TRP21       0.3845
     46  O        -11.0800    1.9620   -6.0950 O.co2  21  TRP21      -0.2437
     47  OXT      -10.4270    4.0430   -6.2080 O.co2  21  TRP21      -0.2437
@<TRIPOS>BOND
     1    47    45   ar
     2    46    45   ar
     3    28    27    1
     4    45    34    1
     5    30    29    1
     6    34    33    1
     7    34    35    1
     8    27    29    1
     9    27    26    1
    10    32    31    2
    11    33    31   am
    12    31    26    1
    13    35    36    1
    14    26    25    1
    15    43    42   ar
    16    43    44   ar
    17    36    44   ar
    18    36    37   ar
    19    42    41   ar
    20    25    23   am
    21    44    39   ar
    22    24    23    2
    23     6     4    1
    24    37    38   ar
    25    23    18    1
    26     8     7    2
    27     1     2    1
    28    41    40   ar
    29    39    38   ar
    30    39    40   ar
    31     2     7    1
    32     2     3    1
    33    20    19    1
    34     7     9   am
    35     4     3    1
    36     4     5    1
    37    19    18    1
    38    19    21    1
    39    18    17    1
    40    17    15   am
    41     9    10    1
    42    15    10    1
    43    15    16    2
    44    10    11    1
    45    21    22    1
    46    13    12   ar
    47    11    12    1
    48    12    14   ar
@<TRIPOS>MOLECULE
16219006
 44 47 0 0 0
SMALL
GASTEIGER

@<TRIPOS>ATOM
      1 O          -4.6836    8.3119   -3.2775 O.2     1  PRO11      -0.2738
      2 O          -5.4999    4.0915   -3.4065 O.2     5  ASP55      -0.2735
      3 O          -3.2595    4.3871   -1.0622 O.2     2  VAL22      -0.2738
      4 O          -9.3451    5.1240   -0.5696 O.2     4  TRP44      -0.2738
      5 O          -6.0088    6.9639    1.0926 O.2     3  LEU33      -0.2738
      6 OD1        -8.5188    3.2508   -5.0805 O.co2   5  ASP55      -0.5497
      7 OD2        -8.4084    0.9925   -4.7854 O.co2   5  ASP55      -0.5497
      8 N          -6.8481    5.8797   -3.7518 N.am    1  PRO11      -0.2884
      9 N          -3.7896    6.2025   -3.2978 N.am    2  VAL22      -0.3022
     10 N          -7.4511    3.9747   -1.1729 N.am    5  ASP55      -0.3021
     11 N          -3.4338    6.3374    0.1099 N.am    3  LEU33      -0.3025
     12 N          -6.2395    4.6862    1.2200 N.am    4  TRP44      -0.3022
     13 NE1        -7.6813    3.9881    5.5095 N.ar    4  TRP44      -0.3604
     14 CA         -5.8548    6.5829   -4.5618 C.3     1  PRO11       0.1023
     15 CB         -6.6493    7.6850   -5.2661 C.3     1  PRO11      -0.0243
     16 CG         -7.8240    7.9360   -4.3281 C.3     1  PRO11      -0.0350
     17 CD         -8.1379    6.5457   -3.8013 C.3     1  PRO11       0.0156
     18 C          -4.7342    7.1456   -3.6604 C.2     1  PRO11       0.2342
     19 C          -6.6394    4.5752   -3.3498 C.2     5  ASP55       0.2369
     20 CA         -2.8043    6.4695   -2.2642 C.3     2  VAL22       0.1017
     21 CA         -7.7827    3.8447   -2.6037 C.3     5  ASP55       0.1047
     22 CB         -1.3503    6.2221   -2.7267 C.3     2  VAL22      -0.0197
     23 CA         -3.9772    5.6585    1.2782 C.3     3  LEU33       0.0996
     24 C          -3.1759    5.6138   -1.0367 C.2     2  VAL22       0.2342
     25 CB         -7.8321    2.3739   -2.9811 C.3     5  ASP55       0.0138
     26 CA         -7.7059    4.7190    1.1592 C.3     4  TRP44       0.1034
     27 CB         -3.4631    6.2673    2.5890 C.3     3  LEU33      -0.0236
     28 CG         -2.0056    5.8921    2.9340 C.3     3  LEU33      -0.0446
     29 C          -8.2282    4.6919   -0.2900 C.2     4  TRP44       0.2343
     30 CB         -8.3348    3.5334    1.9092 C.3     4  TRP44       0.0013
     31 C          -5.5033    5.8470    1.1926 C.2     3  LEU33       0.2340
     32 CG1        -0.9224    7.2903   -3.7405 C.3     2  VAL22      -0.0605
     33 CG2        -1.1012    4.8320   -3.3190 C.3     2  VAL22      -0.0605
     34 CG         -7.9358    3.4679    3.3561 C.ar    4  TRP44      -0.0201
     35 CG         -8.2919    2.1981   -4.4235 C.2     5  ASP55       0.0440
     36 CD1        -0.9803    6.5214    1.9878 C.3     3  LEU33      -0.0626
     37 CD2        -1.6931    6.3191    4.3714 C.3     3  LEU33      -0.0626
     38 CD2        -7.1690    2.4384    3.9925 C.ar    4  TRP44       0.0029
     39 CD1        -8.2407    4.3986    4.3309 C.ar    4  TRP44       0.0060
     40 CE2        -7.0217    2.7948    5.3338 C.ar    4  TRP44       0.0467
     41 CE3        -6.5846    1.2327    3.5519 C.ar    4  TRP44      -0.0523
     42 CZ2        -6.3163    2.0104    6.2547 C.ar    4  TRP44      -0.0378
     43 CZ3        -5.8796    0.4343    4.4603 C.ar    4  TRP44      -0.0611
     44 CH2        -5.7476    0.8207    5.7915 C.ar    4  TRP44      -0.0598
@<TRIPOS>BOND
     1     1    18    2
     2     2    19    2
     3     3    24    2
     4     4    29    2
     5     5    31    2
     6     6    35   ar
     7     7    35   ar
     8     8    14    1
     9     8    17    1
    10     8    19   am
    11     9    18   am
    12     9    20    1
    13    10    21    1
    14    10    29   am
    15    11    23    1
    16    11    24   am
    17    12    26    1
    18    12    31   am
    19    13    39   ar
    20    13    40   ar
    21    14    15    1
    22    14    18    1
    23    15    16    1
    24    16    17    1
    25    19    21    1
    26    20    22    1
    27    20    24    1
    28    21    25    1
    29    22    32    1
    30    22    33    1
    31    23    27    1
    32    23    31    1
    33    25    35    1
    34    26    29    1
    35    26    30    1
    36    27    28    1
    37    28    36    1
    38    28    37    1
    39    30    34    1
    40    34    38   ar
    41    34    39   ar
    42    38    40   ar
    43    38    41   ar
    44    40    42   ar
    45    41    43   ar
    46    42    44   ar
    47    43    44   ar
