@<TRIPOS>MOLECULE
../1EDN/3STEPMIN_17-21.pdb
 47 48 0 0 0
SMALL
GASTEIGER

@<TRIPOS>ATOM
      1  N         -5.4290    0.8830   -1.1740 N.3    17  LEU17      -0.1231
      2  CA        -6.8230    0.6710   -0.7980 C.3    17  LEU17       0.1693
      3  CB        -6.9230   -0.4370    0.2770 C.3    17  LEU17       0.0284
      4  CG        -6.4950   -1.8450   -0.1910 C.3    17  LEU17       0.0019
      5  CD1       -6.5150   -2.8060    0.9980 C.3    17  LEU17       0.0001
      6  CD2       -7.4310   -2.4140   -1.2600 C.3    17  LEU17       0.0001
      7  C         -7.3990    2.0370   -0.3760 C.2    17  LEU17       0.2592
      8  O         -7.4670    2.9330   -1.2040 O.2    17  LEU17      -0.2718
      9  N         -7.7380    2.2560    0.8970 N.am   18  ASP18      -0.1960
     10  CA        -8.5130    3.4280    1.3730 C.3    18  ASP18       0.1840
     11  CB        -9.0510    3.1310    2.7840 C.3    18  ASP18       0.1450
     12  CG       -10.5470    3.4340    2.8500 C.2    18  ASP18       0.3671
     13  OD1      -11.3300    2.4930    2.5610 O.co2  18  ASP18      -0.2456
     14  OD2      -10.9050    4.5930    3.1470 O.co2  18  ASP18      -0.2456
     15  C         -7.8270    4.8120    1.2910 C.2    18  ASP18       0.2622
     16  O         -8.3890    5.8210    1.7350 O.2    18  ASP18      -0.2715
     17  N         -6.6250    4.8510    0.7010 N.am   19  ILE19      -0.1963
     18  CA        -5.9180    6.0210    0.1680 C.3    19  ILE19       0.1727
     19  CB        -4.3960    5.7260    0.0740 C.3    19  ILE19       0.0290
     20  CG2       -3.6150    6.9530   -0.4300 C.3    19  ILE19       0.0023
     21  CG1       -3.7730    5.2100    1.3920 C.3    19  ILE19       0.0022
     22  CD1       -3.8620    6.1700    2.5820 C.3    19  ILE19       0.0001
     23  C         -6.4970    6.4050   -1.2110 C.2    19  ILE19       0.2616
     24  O         -7.0070    7.5130   -1.3720 O.2    19  ILE19      -0.2715
     25  N         -6.3950    5.4980   -2.1940 N.am   20  ILE20      -0.1963
     26  CA        -6.9990    5.5490   -3.5400 C.3    20  ILE20       0.1727
     27  CB        -6.0900    6.2460   -4.5940 C.3    20  ILE20       0.0290
     28  CG2       -6.7980    6.2490   -5.9680 C.3    20  ILE20       0.0023
     29  CG1       -5.7140    7.6970   -4.2070 C.3    20  ILE20       0.0022
     30  CD1       -4.7810    8.4150   -5.1910 C.3    20  ILE20       0.0001
     31  C         -7.3180    4.1070   -3.9880 C.2    20  ILE20       0.2617
     32  O         -6.4020    3.3070   -4.2100 O.2    20  ILE20      -0.2715
     33  N         -8.6100    3.8210   -4.1620 N.am   21  TRP21      -0.1938
     34  CA        -9.2240    2.5950   -4.7020 C.3    21  TRP21       0.2021
     35  CB        -9.7020    1.6830   -3.5450 C.3    21  TRP21       0.0612
     36  CG       -10.4970    2.2370   -2.3850 C.ar   21  TRP21       0.0007
     37  CD1      -10.6860    1.5470   -1.2340 C.ar   21  TRP21       0.0946
     38  NE1      -11.3350    2.3340   -0.3040 N.ar   21  TRP21      -0.2442
     39  CE2      -11.5720    3.5950   -0.7990 C.ar   21  TRP21       0.0810
     40  CZ2      -12.0950    4.7480   -0.2000 C.ar   21  TRP21       0.0191
     41  CH2      -12.2340    5.9130   -0.9670 C.ar   21  TRP21       0.0015
     42  CZ3      -11.8800    5.8920   -2.3260 C.ar   21  TRP21       0.0001
     43  CE3      -11.3480    4.7280   -2.9100 C.ar   21  TRP21       0.0012
     44  CD2      -11.1270    3.5500   -2.1550 C.ar   21  TRP21       0.0152
     45  C        -10.3230    2.8760   -5.7330 C.2    21  TRP21       0.3845
     46  O        -11.0800    1.9620   -6.0950 O.co2  21  TRP21      -0.2437
     47  OXT      -10.4270    4.0430   -6.2080 O.co2  21  TRP21      -0.2437
@<TRIPOS>BOND
     1    47    45   ar
     2    46    45   ar
     3    28    27    1
     4    45    34    1
     5    30    29    1
     6    34    33    1
     7    34    35    1
     8    27    29    1
     9    27    26    1
    10    32    31    2
    11    33    31   am
    12    31    26    1
    13    35    36    1
    14    26    25    1
    15    43    42   ar
    16    43    44   ar
    17    36    44   ar
    18    36    37   ar
    19    42    41   ar
    20    25    23   am
    21    44    39   ar
    22    24    23    2
    23     6     4    1
    24    37    38   ar
    25    23    18    1
    26     8     7    2
    27     1     2    1
    28    41    40   ar
    29    39    38   ar
    30    39    40   ar
    31     2     7    1
    32     2     3    1
    33    20    19    1
    34     7     9   am
    35     4     3    1
    36     4     5    1
    37    19    18    1
    38    19    21    1
    39    18    17    1
    40    17    15   am
    41     9    10    1
    42    15    10    1
    43    15    16    2
    44    10    11    1
    45    21    22    1
    46    13    12   ar
    47    11    12    1
    48    12    14   ar
@<TRIPOS>MOLECULE
16219006
 44 47 0 0 0
SMALL
GASTEIGER

@<TRIPOS>ATOM
      1 O          -3.9194    5.2197   -1.9893 O.2     1  PRO11      -0.2738
      2 O          -7.7483    5.4934    0.1465 O.2     5  ASP55      -0.2735
      3 O          -8.5429    4.6765   -3.1011 O.2     2  VAL22      -0.2738
      4 O          -6.5134    0.8929    1.5596 O.2     4  TRP44      -0.2738
      5 O          -6.0610    1.1198   -2.4770 O.2     3  LEU33      -0.2738
      6 OD1       -10.3104    1.9283    2.3819 O.co2   5  ASP55      -0.5497
      7 OD2        -9.3105    2.9218    4.1877 O.co2   5  ASP55      -0.5497
      8 N          -5.7110    4.7620    0.7904 N.am    1  PRO11      -0.2884
      9 N          -6.1108    5.8706   -2.0883 N.am    2  VAL22      -0.3022
     10 N          -7.8773    2.4517    0.5570 N.am    5  ASP55      -0.3021
     11 N          -7.0123    3.2185   -3.9856 N.am    3  LEU33      -0.3025
     12 N          -8.1832    0.8910   -1.6369 N.am    4  TRP44      -0.3022
     13 NE1        -9.5850   -3.1751   -2.5079 N.ar    4  TRP44      -0.3604
     14 CA         -5.0145    5.8554    0.1117 C.3     1  PRO11       0.1023
     15 CB         -3.6344    5.8748    0.7713 C.3     1  PRO11      -0.0243
     16 CG         -3.4092    4.4197    1.1659 C.3     1  PRO11      -0.0350
     17 CD         -4.7965    3.9523    1.5790 C.3     1  PRO11       0.0156
     18 C          -4.9358    5.6053   -1.4145 C.2     1  PRO11       0.2342
     19 C          -7.0893    4.6922    0.8195 C.2     5  ASP55       0.2369
     20 CA         -6.2945    5.5175   -3.4934 C.3     2  VAL22       0.1017
     21 CA         -7.7482    3.5040    1.5628 C.3     5  ASP55       0.1047
     22 CB         -6.7037    6.7363   -4.3488 C.3     2  VAL22      -0.0197
     23 CA         -7.8740    2.0625   -3.7700 C.3     3  LEU33       0.0996
     24 C          -7.4037    4.4510   -3.5047 C.2     2  VAL22       0.2342
     25 CB         -9.1169    3.9281    2.0774 C.3     5  ASP55       0.0138
     26 CA         -7.7485    0.1977   -0.4136 C.3     4  TRP44       0.1034
     27 CB         -7.8867    1.1254   -4.9821 C.3     3  LEU33      -0.0236
     28 CG         -8.4309    1.7638   -6.2757 C.3     3  LEU33      -0.0446
     29 C          -7.2858    1.2119    0.6563 C.2     4  TRP44       0.2343
     30 CB         -8.8701   -0.6858    0.1519 C.3     4  TRP44       0.0013
     31 C          -7.2718    1.3218   -2.5674 C.2     3  LEU33       0.2340
     32 CG1        -6.9696    6.3297   -5.8048 C.3     2  VAL22      -0.0605
     33 CG2        -5.6181    7.8181   -4.3258 C.3     2  VAL22      -0.0605
     34 CG         -9.3657   -1.7619   -0.7899 C.ar    4  TRP44      -0.0201
     35 CG         -9.6213    2.8112    2.9694 C.2     5  ASP55       0.0440
     36 CD1        -8.3493    0.7532   -7.4226 C.3     3  LEU33      -0.0626
     37 CD2        -9.8698    2.2592   -6.1245 C.3     3  LEU33      -0.0626
     38 CD2       -10.5636   -2.5331   -0.6155 C.ar    4  TRP44       0.0029
     39 CD1        -8.7838   -2.2101   -1.9627 C.ar    4  TRP44       0.0060
     40 CE2       -10.6752   -3.3997   -1.7036 C.ar    4  TRP44       0.0467
     41 CE3       -11.5665   -2.5695    0.3748 C.ar    4  TRP44      -0.0523
     42 CZ2       -11.7393   -4.2972   -1.8557 C.ar    4  TRP44      -0.0378
     43 CZ3       -12.6329   -3.4674    0.2441 C.ar    4  TRP44      -0.0611
     44 CH2       -12.7167   -4.3167   -0.8569 C.ar    4  TRP44      -0.0598
@<TRIPOS>BOND
     1     1    18    2
     2     2    19    2
     3     3    24    2
     4     4    29    2
     5     5    31    2
     6     6    35   ar
     7     7    35   ar
     8     8    14    1
     9     8    17    1
    10     8    19   am
    11     9    18   am
    12     9    20    1
    13    10    21    1
    14    10    29   am
    15    11    23    1
    16    11    24   am
    17    12    26    1
    18    12    31   am
    19    13    39   ar
    20    13    40   ar
    21    14    15    1
    22    14    18    1
    23    15    16    1
    24    16    17    1
    25    19    21    1
    26    20    22    1
    27    20    24    1
    28    21    25    1
    29    22    32    1
    30    22    33    1
    31    23    27    1
    32    23    31    1
    33    25    35    1
    34    26    29    1
    35    26    30    1
    36    27    28    1
    37    28    36    1
    38    28    37    1
    39    30    34    1
    40    34    38   ar
    41    34    39   ar
    42    38    40   ar
    43    38    41   ar
    44    40    42   ar
    45    41    43   ar
    46    42    44   ar
    47    43    44   ar
