@<TRIPOS>MOLECULE
ET1_17-21_50CONFORMERS.pdb
 47 48 0 0 0
SMALL
GASTEIGER

@<TRIPOS>ATOM
      1  N         -4.8070    0.3350   -1.8510 N.3    17  LEU17      -0.1231
      2  CA        -5.9720   -0.3250   -2.3930 C.3    17  LEU17       0.1693
      3  CB        -6.0760   -1.7180   -1.5760 C.3    17  LEU17       0.0284
      4  CG        -7.3110   -2.5820   -1.9470 C.3    17  LEU17       0.0019
      5  CD1       -6.9390   -3.2580   -3.2630 C.3    17  LEU17       0.0001
      6  CD2       -7.7350   -3.6450   -0.9830 C.3    17  LEU17       0.0001
      7  C         -7.1850    0.6100   -2.2360 C.2    17  LEU17       0.2592
      8  O         -7.8620    0.7970   -3.2410 O.2    17  LEU17      -0.2718
      9  N         -7.5030    1.0240   -0.9560 N.am   18  ASP18      -0.1960
     10  CA        -8.6550    1.7030   -0.4650 C.3    18  ASP18       0.1840
     11  CB        -9.4600    0.6200    0.3120 C.3    18  ASP18       0.1450
     12  CG       -10.8310    1.1150    0.8640 C.2    18  ASP18       0.3671
     13  OD1      -11.8750    0.6760    0.3220 O.co2  18  ASP18      -0.2456
     14  OD2      -10.9420    1.8120    1.8850 O.co2  18  ASP18      -0.2456
     15  C         -8.2440    2.9730    0.3820 C.2    18  ASP18       0.2622
     16  O         -8.5260    4.1000   -0.0090 O.2    18  ASP18      -0.2715
     17  N         -7.4690    2.7490    1.4010 N.am   19  ILE19      -0.1963
     18  CA        -6.7810    3.7650    2.1880 C.3    19  ILE19       0.1727
     19  CB        -5.8310    3.1830    3.2140 C.3    19  ILE19       0.0290
     20  CG2       -5.2210    4.3700    4.0780 C.3    19  ILE19       0.0023
     21  CG1       -6.5890    2.1450    4.0960 C.3    19  ILE19       0.0022
     22  CD1       -7.7320    2.6430    4.9740 C.3    19  ILE19       0.0001
     23  C         -6.1710    4.8710    1.3220 C.2    19  ILE19       0.2616
     24  O         -6.6090    6.0060    1.3240 O.2    19  ILE19      -0.2715
     25  N         -5.0650    4.4950    0.5440 N.am   20  ILE20      -0.1963
     26  CA        -4.7620    5.2980   -0.6580 C.3    20  ILE20       0.1727
     27  CB        -3.2350    5.6430   -0.5900 C.3    20  ILE20       0.0290
     28  CG2       -3.1020    6.4660    0.6790 C.3    20  ILE20       0.0023
     29  CG1       -2.3060    4.4540   -0.7430 C.3    20  ILE20       0.0022
     30  CD1       -0.8980    4.8160   -0.4210 C.3    20  ILE20       0.0001
     31  C         -5.0510    4.4690   -1.9320 C.2    20  ILE20       0.2617
     32  O         -5.2790    3.2730   -1.9100 O.2    20  ILE20      -0.2715
     33  N         -5.0650    5.1730   -3.0850 N.am   21  TRP21      -0.1941
     34  CA        -5.1520    4.7060   -4.4930 C.3    21  TRP21       0.1982
     35  CB        -6.6430    4.4220   -4.8850 C.3    21  TRP21       0.0394
     36  CG        -6.7540    3.5400   -6.0910 C.3    21  TRP21       0.0475
     37  CD1       -6.3480    2.2620   -6.1710 C.3    21  TRP21       0.1166
     38  NE1       -6.6350    1.6980   -7.4270 N.pl3  21  TRP21      -0.2376
     39  CE2       -7.4160    2.5970   -8.1310 C.ar   21  TRP21       0.0614
     40  CZ2       -7.9590    2.5090   -9.4120 C.ar   21  TRP21       0.0158
     41  CH2       -8.6650    3.6450   -9.9300 C.ar   21  TRP21       0.0013
     42  CZ3       -8.6550    4.8890   -9.1660 C.ar   21  TRP21      -0.0002
     43  CE3       -8.0720    4.9490   -7.9420 C.ar   21  TRP21      -0.0030
     44  CD2       -7.4040    3.8200   -7.3920 C.ar   21  TRP21      -0.0059
     45  C         -4.4520    5.7090   -5.4240 C.2    21  TRP21       0.3842
     46  O         -4.9300    6.8650   -5.4290 O.co2  21  TRP21      -0.2437
     47  OXT       -3.4930    5.4370   -6.1890 O.co2  21  TRP21      -0.2437
@<TRIPOS>BOND
     1    40    41   ar
     2    40    39   ar
     3    41    42   ar
     4    39    38    1
     5    39    44   ar
     6    42    43   ar
     7    38    37    1
     8    43    44   ar
     9    44    36    1
    10    37    36    1
    11    36    35    1
    12    47    45   ar
    13     5     4    1
    14    35    34    1
    15    45    34    1
    16    45    46   ar
    17    34    33    1
    18     8     7    2
    19     4     6    1
    20     4     3    1
    21     2     3    1
    22     2     1    1
    23     2     7    1
    24     7     9   am
    25    33    31   am
    26    32    31    2
    27    31    26    1
    28     9    10    1
    29    10    11    1
    30    10    15    1
    31    26    27    1
    32    26    25    1
    33    11    12    1
    34    13    12   ar
    35    27    29    1
    36    27    28    1
    37    29    30    1
    38    16    15    2
    39    15    17   am
    40    12    14   ar
    41    25    23   am
    42    17    18    1
    43    23    24    2
    44    23    18    1
    45    18    19    1
    46    19    21    1
    47    19    20    1
    48    21    22    1
@<TRIPOS>MOLECULE
16219006
 44 47 0 0 0
SMALL
GASTEIGER

@<TRIPOS>ATOM
      1 O          -7.4192    0.6492    1.2531 O.2     1  PRO11      -0.2738
      2 O          -9.6392    4.0581    0.0734 O.2     5  ASP55      -0.2735
      3 O          -6.5766    5.3618    0.9432 O.2     2  VAL22      -0.2738
      4 O          -8.8850    2.1845   -4.1000 O.2     4  TRP44      -0.2738
      5 O          -5.3814    2.5807   -2.5860 O.2     3  LEU33      -0.2738
      6 OD1       -12.9584    3.0872   -1.4745 O.co2   5  ASP55      -0.5497
      7 OD2       -13.5138    5.2851   -1.2357 O.co2   5  ASP55      -0.5497
      8 N          -9.9450    1.8676   -0.4163 N.am    1  PRO11      -0.2884
      9 N          -7.8881    2.8237    1.7948 N.am    2  VAL22      -0.3022
     10 N          -9.1853    4.0592   -2.8107 N.am    5  ASP55      -0.3021
     11 N          -5.2783    3.7313    0.0022 N.am    3  LEU33      -0.3025
     12 N          -6.4246    4.5422   -3.1749 N.am    4  TRP44      -0.3022
     13 NE1        -9.7857    3.6553   -7.9138 N.ar    4  TRP44      -0.3604
     14 CA         -9.7265    1.4364    0.9619 C.3     1  PRO11       0.1023
     15 CB        -10.2162   -0.0142    0.9914 C.3     1  PRO11      -0.0243
     16 CG        -10.0630   -0.4770   -0.4519 C.3     1  PRO11      -0.0350
     17 CD        -10.4175    0.7694   -1.2437 C.3     1  PRO11       0.0156
     18 C          -8.2355    1.5636    1.3486 C.2     1  PRO11       0.2342
     19 C         -10.0369    3.2066   -0.7325 C.2     5  ASP55       0.2369
     20 CA         -6.5055    3.1998    2.0651 C.3     2  VAL22       0.1017
     21 CA        -10.4343    3.6057   -2.1747 C.3     5  ASP55       0.1047
     22 CB         -6.3500    3.8212    3.4711 C.3     2  VAL22      -0.0197
     23 CA         -4.9828    4.5190   -1.1861 C.3     3  LEU33       0.0996
     24 C          -6.1280    4.2173    0.9717 C.2     2  VAL22       0.2342
     25 CB        -11.4241    4.7590   -2.1588 C.3     5  ASP55       0.0138
     26 CA         -7.2007    3.9283   -4.2675 C.3     4  TRP44       0.1034
     27 CB         -3.4736    4.6700   -1.4087 C.3     3  LEU33      -0.0236
     28 CG         -2.7315    5.4421   -0.2970 C.3     3  LEU33      -0.0446
     29 C          -8.4708    3.2654   -3.6857 C.2     4  TRP44       0.2343
     30 CB         -7.5701    5.0065   -5.3015 C.3     4  TRP44       0.0013
     31 C          -5.6050    3.7707   -2.3767 C.2     3  LEU33       0.2340
     32 CG1        -4.9058    4.2786    3.7171 C.3     2  VAL22      -0.0605
     33 CG2        -6.7475    2.8238    4.5657 C.3     2  VAL22      -0.0605
     34 CG         -8.2377    4.4941   -6.5417 C.ar    4  TRP44      -0.0201
     35 CG        -12.7554    4.3287   -1.5592 C.2     5  ASP55       0.0440
     36 CD1        -1.2355    5.4947   -0.6192 C.3     3  LEU33      -0.0626
     37 CD2        -3.2632    6.8639   -0.1074 C.3     3  LEU33      -0.0626
     38 CD2        -7.6838    4.3959   -7.8604 C.ar    4  TRP44       0.0029
     39 CD1        -9.5456    4.0575   -6.6307 C.ar    4  TRP44       0.0060
     40 CE2        -8.6761    3.8755   -8.6942 C.ar    4  TRP44       0.0467
     41 CE3        -6.4314    4.7078   -8.4302 C.ar    4  TRP44      -0.0523
     42 CZ2        -8.4815    3.6517  -10.0624 C.ar    4  TRP44      -0.0378
     43 CZ3        -6.2222    4.4980   -9.7992 C.ar    4  TRP44      -0.0611
     44 CH2        -7.2345    3.9775  -10.6014 C.ar    4  TRP44      -0.0598
@<TRIPOS>BOND
     1     1    18    2
     2     2    19    2
     3     3    24    2
     4     4    29    2
     5     5    31    2
     6     6    35   ar
     7     7    35   ar
     8     8    14    1
     9     8    17    1
    10     8    19   am
    11     9    18   am
    12     9    20    1
    13    10    21    1
    14    10    29   am
    15    11    23    1
    16    11    24   am
    17    12    26    1
    18    12    31   am
    19    13    39   ar
    20    13    40   ar
    21    14    15    1
    22    14    18    1
    23    15    16    1
    24    16    17    1
    25    19    21    1
    26    20    22    1
    27    20    24    1
    28    21    25    1
    29    22    32    1
    30    22    33    1
    31    23    27    1
    32    23    31    1
    33    25    35    1
    34    26    29    1
    35    26    30    1
    36    27    28    1
    37    28    36    1
    38    28    37    1
    39    30    34    1
    40    34    38   ar
    41    34    39   ar
    42    38    40   ar
    43    38    41   ar
    44    40    42   ar
    45    41    43   ar
    46    42    44   ar
    47    43    44   ar
