@<TRIPOS>MOLECULE
ET1_17-21_50CONFORMERS.pdb
 47 48 0 0 0
SMALL
GASTEIGER

@<TRIPOS>ATOM
      1  N         -5.1240    0.2200   -1.1680 N.3    17  LEU17      -0.1231
      2  CA        -6.4290   -0.3520   -1.3470 C.3    17  LEU17       0.1693
      3  CB        -6.5650   -1.4580   -0.3110 C.3    17  LEU17       0.0284
      4  CG        -7.7460   -2.4340   -0.5060 C.3    17  LEU17       0.0019
      5  CD1       -7.8580   -3.0370   -1.9450 C.3    17  LEU17       0.0001
      6  CD2       -7.5480   -3.6660    0.4700 C.3    17  LEU17       0.0001
      7  C         -7.5570    0.7230   -1.1910 C.2    17  LEU17       0.2592
      8  O         -8.5080    0.5920   -1.9290 O.2    17  LEU17      -0.2718
      9  N         -7.3530    1.6930   -0.3160 N.am   18  ASP18      -0.1960
     10  CA        -8.3710    2.6970    0.0290 C.3    18  ASP18       0.1840
     11  CB        -9.1830    2.2270    1.2540 C.3    18  ASP18       0.1450
     12  CG       -10.1190    3.2280    1.8640 C.2    18  ASP18       0.3671
     13  OD1      -11.1530    3.6680    1.3060 O.co2  18  ASP18      -0.2456
     14  OD2       -9.7570    3.7260    2.9640 O.co2  18  ASP18      -0.2456
     15  C         -7.6950    4.0470    0.2940 C.2    18  ASP18       0.2622
     16  O         -8.1320    5.0650   -0.2880 O.2    18  ASP18      -0.2715
     17  N         -6.7180    4.0860    1.1840 N.am   19  ILE19      -0.1963
     18  CA        -5.9940    5.2620    1.5960 C.3    19  ILE19       0.1727
     19  CB        -5.0730    4.9940    2.8050 C.3    19  ILE19       0.0290
     20  CG2       -4.3720    6.2200    3.3260 C.3    19  ILE19       0.0023
     21  CG1       -5.9700    4.4790    3.9280 C.3    19  ILE19       0.0022
     22  CD1       -5.1800    3.8570    5.1220 C.3    19  ILE19       0.0001
     23  C         -5.0600    5.7250    0.4830 C.2    19  ILE19       0.2616
     24  O         -4.9460    6.9140    0.1610 O.2    19  ILE19      -0.2715
     25  N         -4.3130    4.7870   -0.1330 N.am   20  ILE20      -0.1963
     26  CA        -3.5800    4.9710   -1.3970 C.3    20  ILE20       0.1727
     27  CB        -2.1460    4.3850   -1.3300 C.3    20  ILE20       0.0290
     28  CG2       -1.2570    4.4980   -2.6400 C.3    20  ILE20       0.0023
     29  CG1       -1.4410    5.1330   -0.1760 C.3    20  ILE20       0.0022
     30  CD1        0.0370    4.7250    0.0590 C.3    20  ILE20       0.0001
     31  C         -4.3770    4.3220   -2.4840 C.2    20  ILE20       0.2617
     32  O         -4.3780    3.0980   -2.4750 O.2    20  ILE20      -0.2715
     33  N         -5.1280    5.0160   -3.3140 N.am   21  TRP21      -0.1941
     34  CA        -5.8240    4.4130   -4.4310 C.3    21  TRP21       0.1982
     35  CB        -7.2260    3.9060   -3.9570 C.3    21  TRP21       0.0394
     36  CG        -8.0780    3.1360   -4.9220 C.3    21  TRP21       0.0475
     37  CD1       -9.0450    3.6780   -5.6240 C.3    21  TRP21       0.1166
     38  NE1       -9.5590    2.7360   -6.4910 N.pl3  21  TRP21      -0.2376
     39  CE2       -8.9590    1.4790   -6.3190 C.ar   21  TRP21       0.0614
     40  CZ2       -9.1040    0.2160   -6.8210 C.ar   21  TRP21       0.0158
     41  CH2       -8.4150   -0.9370   -6.3400 C.ar   21  TRP21       0.0013
     42  CZ3       -7.4180   -0.6890   -5.3420 C.ar   21  TRP21      -0.0002
     43  CE3       -7.2370    0.6130   -4.8350 C.ar   21  TRP21      -0.0030
     44  CD2       -8.0160    1.7350   -5.2970 C.ar   21  TRP21      -0.0059
     45  C         -5.8960    5.3640   -5.6200 C.2    21  TRP21       0.3842
     46  O         -5.4660    5.0720   -6.7740 O.co2  21  TRP21      -0.2437
     47  OXT       -6.0980    6.5780   -5.4070 O.co2  21  TRP21      -0.2437
@<TRIPOS>BOND
     1    40    41   ar
     2    40    39   ar
     3    41    42   ar
     4    39    38    1
     5    39    44   ar
     6    42    43   ar
     7    38    37    1
     8    43    44   ar
     9    44    36    1
    10    37    36    1
    11    36    35    1
    12    47    45   ar
    13     5     4    1
    14    35    34    1
    15    45    34    1
    16    45    46   ar
    17    34    33    1
    18     8     7    2
    19     4     6    1
    20     4     3    1
    21     2     3    1
    22     2     1    1
    23     2     7    1
    24     7     9   am
    25    33    31   am
    26    32    31    2
    27    31    26    1
    28     9    10    1
    29    10    11    1
    30    10    15    1
    31    26    27    1
    32    26    25    1
    33    11    12    1
    34    13    12   ar
    35    27    29    1
    36    27    28    1
    37    29    30    1
    38    16    15    2
    39    15    17   am
    40    12    14   ar
    41    25    23   am
    42    17    18    1
    43    23    24    2
    44    23    18    1
    45    18    19    1
    46    19    21    1
    47    19    20    1
    48    21    22    1
@<TRIPOS>MOLECULE
16219006
 44 47 0 0 0
SMALL
GASTEIGER

@<TRIPOS>ATOM
      1 O          -6.5946    3.0508    3.4433 O.2     1  PRO11      -0.2738
      2 O          -2.9204    2.9422    1.1913 O.2     5  ASP55      -0.2735
      3 O          -4.0560   -0.0575    0.9881 O.2     2  VAL22      -0.2738
      4 O          -5.5988    4.6027   -2.5619 O.2     4  TRP44      -0.2738
      5 O          -7.6250    1.3586   -0.8767 O.2     3  LEU33      -0.2738
      6 OD1        -1.7496    6.1238    0.1382 O.co2   5  ASP55      -0.5497
      7 OD2         0.1211    5.3445   -0.9073 O.co2   5  ASP55      -0.5497
      8 N          -4.4917    4.5612    1.4019 N.am    1  PRO11      -0.2884
      9 N          -4.6394    1.9290    3.0334 N.am    2  VAL22      -0.3022
     10 N          -4.1086    3.1938   -1.5294 N.am    5  ASP55      -0.3021
     11 N          -6.3247   -0.2992    1.0017 N.am    3  LEU33      -0.3025
     12 N          -5.7274    1.0167   -2.1187 N.am    4  TRP44      -0.3022
     13 NE1        -6.0529   -1.0360   -6.1767 N.ar    4  TRP44      -0.3604
     14 CA         -4.6175    4.3728    2.8463 C.3     1  PRO11       0.1023
     15 CB         -5.3491    5.6271    3.3301 C.3     1  PRO11      -0.0243
     16 CG         -6.1443    6.0721    2.1082 C.3     1  PRO11      -0.0350
     17 CD         -5.2063    5.7452    0.9582 C.3     1  PRO11       0.0156
     18 C          -5.4012    3.0763    3.1467 C.2     1  PRO11       0.2342
     19 C          -3.5088    3.9084    0.6849 C.2     5  ASP55       0.2369
     20 CA         -5.2474    0.6095    3.0196 C.3     2  VAL22       0.1017
     21 CA         -3.3526    4.2429   -0.8188 C.3     5  ASP55       0.1047
     22 CB         -4.6436   -0.3549    4.0645 C.3     2  VAL22      -0.0197
     23 CA         -6.3483   -0.6457   -0.4125 C.3     3  LEU33       0.0996
     24 C          -5.1247    0.0557    1.5853 C.2     2  VAL22       0.2342
     25 CB         -1.8939    4.1930   -1.2410 C.3     5  ASP55       0.0138
     26 CA         -5.9002    2.2332   -2.9208 C.3     4  TRP44       0.1034
     27 CB         -7.4427   -1.6698   -0.7384 C.3     3  LEU33      -0.0236
     28 CG         -7.1101   -3.1127   -0.3006 C.3     3  LEU33      -0.0446
     29 C          -5.2366    3.4631   -2.2723 C.2     4  TRP44       0.2343
     30 CB         -5.3195    2.0735   -4.3358 C.3     4  TRP44       0.0013
     31 C          -6.6433    0.6704   -1.1534 C.2     3  LEU33       0.2340
     32 CG1        -5.0417    0.0745    5.4820 C.3     2  VAL22      -0.0605
     33 CG2        -3.1208   -0.4980    3.9858 C.3     2  VAL22      -0.0605
     34 CG         -5.8883    0.9093   -5.0980 C.ar    4  TRP44      -0.0201
     35 CG         -1.1044    5.3288   -0.5995 C.2     5  ASP55       0.0440
     36 CD1        -7.0859   -3.2908    1.2189 C.3     3  LEU33      -0.0626
     37 CD2        -8.1301   -4.0808   -0.9070 C.3     3  LEU33      -0.0626
     38 CD2        -7.2430    0.7346   -5.5337 C.ar    4  TRP44       0.0029
     39 CD1        -5.1869   -0.2039   -5.5216 C.ar    4  TRP44       0.0060
     40 CE2        -7.3159   -0.4940   -6.1920 C.ar    4  TRP44       0.0467
     41 CE3        -8.4192    1.5054   -5.4256 C.ar    4  TRP44      -0.0523
     42 CZ2        -8.5048   -0.9937   -6.7384 C.ar    4  TRP44      -0.0378
     43 CZ3        -9.6172    1.0194   -5.9626 C.ar    4  TRP44      -0.0611
     44 CH2        -9.6570   -0.2135   -6.6080 C.ar    4  TRP44      -0.0598
@<TRIPOS>BOND
     1     1    18    2
     2     2    19    2
     3     3    24    2
     4     4    29    2
     5     5    31    2
     6     6    35   ar
     7     7    35   ar
     8     8    14    1
     9     8    17    1
    10     8    19   am
    11     9    18   am
    12     9    20    1
    13    10    21    1
    14    10    29   am
    15    11    23    1
    16    11    24   am
    17    12    26    1
    18    12    31   am
    19    13    39   ar
    20    13    40   ar
    21    14    15    1
    22    14    18    1
    23    15    16    1
    24    16    17    1
    25    19    21    1
    26    20    22    1
    27    20    24    1
    28    21    25    1
    29    22    32    1
    30    22    33    1
    31    23    27    1
    32    23    31    1
    33    25    35    1
    34    26    29    1
    35    26    30    1
    36    27    28    1
    37    28    36    1
    38    28    37    1
    39    30    34    1
    40    34    38   ar
    41    34    39   ar
    42    38    40   ar
    43    38    41   ar
    44    40    42   ar
    45    41    43   ar
    46    42    44   ar
    47    43    44   ar
