@<TRIPOS>MOLECULE
ET1_17-21_50CONFORMERS.pdb
 47 48 0 0 0
SMALL
GASTEIGER

@<TRIPOS>ATOM
      1  N         -4.7730    0.0050   -1.4620 N.3    17  LEU17      -0.1231
      2  CA        -6.0920   -0.6930   -1.5710 C.3    17  LEU17       0.1693
      3  CB        -6.1310   -1.8090   -0.5270 C.3    17  LEU17       0.0284
      4  CG        -7.4070   -2.7000   -0.5300 C.3    17  LEU17       0.0019
      5  CD1       -7.7160   -3.1950   -1.9390 C.3    17  LEU17       0.0001
      6  CD2       -7.2270   -3.7850    0.5500 C.3    17  LEU17       0.0001
      7  C         -7.2220    0.3070   -1.6030 C.2    17  LEU17       0.2592
      8  O         -8.0160    0.3050   -2.5560 O.2    17  LEU17      -0.2718
      9  N         -7.4110    0.9590   -0.4240 N.am   18  ASP18      -0.1960
     10  CA        -8.5230    1.8150   -0.0260 C.3    18  ASP18       0.1840
     11  CB        -9.5320    1.0750    0.8580 C.3    18  ASP18       0.1450
     12  CG       -10.7800    2.0020    0.9270 C.2    18  ASP18       0.3671
     13  OD1      -11.6450    1.9960    0.0150 O.co2  18  ASP18      -0.2456
     14  OD2      -10.9480    2.6740    1.9790 O.co2  18  ASP18      -0.2456
     15  C         -8.1630    3.1480    0.5720 C.2    18  ASP18       0.2622
     16  O         -8.4870    4.2060    0.0570 O.2    18  ASP18      -0.2715
     17  N         -7.1580    3.1700    1.4870 N.am   19  ILE19      -0.1963
     18  CA        -6.5010    4.4100    2.0140 C.3    19  ILE19       0.1727
     19  CB        -5.5200    4.0560    3.1630 C.3    19  ILE19       0.0290
     20  CG2       -4.6340    5.2440    3.6770 C.3    19  ILE19       0.0023
     21  CG1       -6.3440    3.4570    4.3090 C.3    19  ILE19       0.0022
     22  CD1       -5.5140    2.5520    5.2940 C.3    19  ILE19       0.0001
     23  C         -5.8540    5.2020    0.9170 C.2    19  ILE19       0.2616
     24  O         -6.0890    6.3900    0.7170 O.2    19  ILE19      -0.2715
     25  N         -4.9340    4.5760    0.1200 N.am   20  ILE20      -0.1963
     26  CA        -4.3050    5.0560   -1.1210 C.3    20  ILE20       0.1727
     27  CB        -2.7570    4.7950   -1.0380 C.3    20  ILE20       0.0290
     28  CG2       -2.0870    5.2180   -2.4190 C.3    20  ILE20       0.0023
     29  CG1       -2.0630    5.5960    0.0600 C.3    20  ILE20       0.0022
     30  CD1       -0.5780    5.4070   -0.0470 C.3    20  ILE20       0.0001
     31  C         -5.0000    4.2460   -2.2800 C.2    20  ILE20       0.2617
     32  O         -4.8970    3.0140   -2.3930 O.2    20  ILE20      -0.2715
     33  N         -5.6430    4.9710   -3.2380 N.am   21  TRP21      -0.1941
     34  CA        -6.2760    4.3970   -4.3640 C.3    21  TRP21       0.1982
     35  CB        -7.6200    3.7070   -3.9320 C.3    21  TRP21       0.0394
     36  CG        -8.3010    2.9550   -4.9610 C.3    21  TRP21       0.0475
     37  CD1       -9.5490    3.2390   -5.4270 C.3    21  TRP21       0.1166
     38  NE1       -9.9110    2.3770   -6.4370 N.pl3  21  TRP21      -0.2376
     39  CE2       -8.8950    1.4430   -6.6670 C.ar   21  TRP21       0.0614
     40  CZ2       -8.6550    0.3710   -7.5990 C.ar   21  TRP21       0.0158
     41  CH2       -7.4400   -0.3430   -7.5640 C.ar   21  TRP21       0.0013
     42  CZ3       -6.5670   -0.0430   -6.5570 C.ar   21  TRP21      -0.0002
     43  CE3       -6.7650    0.9330   -5.6460 C.ar   21  TRP21      -0.0030
     44  CD2       -7.9320    1.7440   -5.7080 C.ar   21  TRP21      -0.0059
     45  C         -6.6270    5.5290   -5.4110 C.2    21  TRP21       0.3842
     46  O         -6.5990    5.2250   -6.6440 O.co2  21  TRP21      -0.2437
     47  OXT       -7.0570    6.6710   -5.0490 O.co2  21  TRP21      -0.2437
@<TRIPOS>BOND
     1    40    41   ar
     2    40    39   ar
     3    41    42   ar
     4    39    38    1
     5    39    44   ar
     6    42    43   ar
     7    38    37    1
     8    43    44   ar
     9    44    36    1
    10    37    36    1
    11    36    35    1
    12    47    45   ar
    13     5     4    1
    14    35    34    1
    15    45    34    1
    16    45    46   ar
    17    34    33    1
    18     8     7    2
    19     4     6    1
    20     4     3    1
    21     2     3    1
    22     2     1    1
    23     2     7    1
    24     7     9   am
    25    33    31   am
    26    32    31    2
    27    31    26    1
    28     9    10    1
    29    10    11    1
    30    10    15    1
    31    26    27    1
    32    26    25    1
    33    11    12    1
    34    13    12   ar
    35    27    29    1
    36    27    28    1
    37    29    30    1
    38    16    15    2
    39    15    17   am
    40    12    14   ar
    41    25    23   am
    42    17    18    1
    43    23    24    2
    44    23    18    1
    45    18    19    1
    46    19    21    1
    47    19    20    1
    48    21    22    1
@<TRIPOS>MOLECULE
16219006
 44 47 0 0 0
SMALL
GASTEIGER

@<TRIPOS>ATOM
      1 O          -7.1525    2.7155    3.1295 O.2     1  PRO11      -0.2738
      2 O          -3.2618    3.0093    1.3116 O.2     5  ASP55      -0.2735
      3 O          -4.1321   -0.0244    0.7799 O.2     2  VAL22      -0.2738
      4 O          -5.6157    4.7756   -2.5907 O.2     4  TRP44      -0.2738
      5 O          -7.5657    1.2782   -1.3975 O.2     3  LEU33      -0.2738
      6 OD1        -2.2255    6.3572    0.6343 O.co2   5  ASP55      -0.5497
      7 OD2        -0.1695    5.6839   -0.0869 O.co2   5  ASP55      -0.5497
      8 N          -4.9527    4.5106    1.4566 N.am    1  PRO11      -0.2884
      9 N          -5.0881    1.7545    2.8737 N.am    2  VAL22      -0.3022
     10 N          -4.1320    3.4008   -1.5039 N.am    5  ASP55      -0.3021
     11 N          -6.3624   -0.4217    0.5087 N.am    3  LEU33      -0.3025
     12 N          -5.5129    1.1673   -2.4185 N.am    4  TRP44      -0.3022
     13 NE1        -5.2378   -0.5804   -6.6255 N.ar    4  TRP44      -0.3604
     14 CA         -5.2205    4.2017    2.8604 C.3     1  PRO11       0.1023
     15 CB         -6.0864    5.3663    3.3468 C.3     1  PRO11      -0.0243
     16 CG         -6.7709    5.8596    2.0773 C.3     1  PRO11      -0.0350
     17 CD         -5.6919    5.6825    1.0219 C.3     1  PRO11       0.0156
     18 C          -5.9382    2.8391    2.9773 C.2     1  PRO11       0.2342
     19 C          -3.8550    3.9760    0.8127 C.2     5  ASP55       0.2369
     20 CA         -5.5937    0.4042    2.6966 C.3     2  VAL22       0.1017
     21 CA         -3.5505    4.4404   -0.6328 C.3     5  ASP55       0.1047
     22 CB         -5.0455   -0.5973    3.7372 C.3     2  VAL22      -0.0197
     23 CA         -6.1988   -0.6610   -0.9185 C.3     3  LEU33       0.0996
     24 C          -5.2674   -0.0295    1.2526 C.2     2  VAL22       0.2342
     25 CB         -2.0520    4.5254   -0.8695 C.3     5  ASP55       0.0138
     26 CA         -5.6856    2.4267   -3.1511 C.3     4  TRP44       0.1034
     27 CB         -7.1689   -1.7283   -1.4400 C.3     3  LEU33      -0.0236
     28 CG         -6.7811   -3.1750   -1.0642 C.3     3  LEU33      -0.0446
     29 C          -5.1942    3.6461   -2.3449 C.2     4  TRP44       0.2343
     30 CB         -4.9404    2.4151   -4.4955 C.3     4  TRP44       0.0013
     31 C          -6.5063    0.6849   -1.5985 C.2     3  LEU33       0.2340
     32 CG1        -5.6304   -0.3018    5.1240 C.3     2  VAL22      -0.0605
     33 CG2        -3.5174   -0.6390    3.8288 C.3     2  VAL22      -0.0605
     34 CG         -5.3354    1.2805   -5.3993 C.ar    4  TRP44      -0.0201
     35 CG         -1.4282    5.6271   -0.0169 C.2     5  ASP55       0.0440
     36 CD1        -6.9151   -3.4652    0.4323 C.3     3  LEU33      -0.0626
     37 CD2        -7.6517   -4.1600   -1.8499 C.3     3  LEU33      -0.0626
     38 CD2        -6.6167    1.0554   -6.0024 C.ar    4  TRP44       0.0029
     39 CD1        -4.5130    0.2506   -5.8158 C.ar    4  TRP44       0.0060
     40 CE2        -6.5268   -0.1192   -6.7506 C.ar    4  TRP44       0.0467
     41 CE3        -7.8499    1.7394   -5.9787 C.ar    4  TRP44      -0.0523
     42 CZ2        -7.6075   -0.6484   -7.4673 C.ar    4  TRP44      -0.0378
     43 CZ3        -8.9419    1.2227   -6.6863 C.ar    4  TRP44      -0.0611
     44 CH2        -8.8203    0.0448   -7.4182 C.ar    4  TRP44      -0.0598
@<TRIPOS>BOND
     1     1    18    2
     2     2    19    2
     3     3    24    2
     4     4    29    2
     5     5    31    2
     6     6    35   ar
     7     7    35   ar
     8     8    14    1
     9     8    17    1
    10     8    19   am
    11     9    18   am
    12     9    20    1
    13    10    21    1
    14    10    29   am
    15    11    23    1
    16    11    24   am
    17    12    26    1
    18    12    31   am
    19    13    39   ar
    20    13    40   ar
    21    14    15    1
    22    14    18    1
    23    15    16    1
    24    16    17    1
    25    19    21    1
    26    20    22    1
    27    20    24    1
    28    21    25    1
    29    22    32    1
    30    22    33    1
    31    23    27    1
    32    23    31    1
    33    25    35    1
    34    26    29    1
    35    26    30    1
    36    27    28    1
    37    28    36    1
    38    28    37    1
    39    30    34    1
    40    34    38   ar
    41    34    39   ar
    42    38    40   ar
    43    38    41   ar
    44    40    42   ar
    45    41    43   ar
    46    42    44   ar
    47    43    44   ar
