@<TRIPOS>MOLECULE
ET1_17-21_50CONFORMERS.pdb
 47 48 0 0 0
SMALL
GASTEIGER

@<TRIPOS>ATOM
      1  N         -4.2160    0.4160   -2.9520 N.3    17  LEU17      -0.1231
      2  CA        -5.4630   -0.2520   -3.4030 C.3    17  LEU17       0.1693
      3  CB        -5.4700   -1.7730   -3.1120 C.3    17  LEU17       0.0284
      4  CG        -6.7900   -2.5440   -3.4740 C.3    17  LEU17       0.0019
      5  CD1       -7.0450   -2.3540   -4.9550 C.3    17  LEU17       0.0001
      6  CD2       -6.7910   -4.0540   -3.2680 C.3    17  LEU17       0.0001
      7  C         -6.7900    0.3610   -2.8310 C.2    17  LEU17       0.2592
      8  O         -7.6240    0.6580   -3.6850 O.2    17  LEU17      -0.2718
      9  N         -6.9720    0.5400   -1.5390 N.am   18  ASP18      -0.1960
     10  CA        -8.1540    1.0840   -0.8410 C.3    18  ASP18       0.1840
     11  CB        -9.0330   -0.0920   -0.3620 C.3    18  ASP18       0.1450
     12  CG       -10.2330    0.4120    0.4010 C.2    18  ASP18       0.3671
     13  OD1      -11.1160    1.0220   -0.2680 O.co2  18  ASP18      -0.2456
     14  OD2      -10.4510    0.1630    1.6130 O.co2  18  ASP18      -0.2456
     15  C         -7.7900    2.1820    0.2340 C.2    18  ASP18       0.2622
     16  O         -8.3300    3.2620    0.2010 O.2    18  ASP18      -0.2715
     17  N         -6.8500    1.8540    1.1550 N.am   19  ILE19      -0.1963
     18  CA        -6.3420    2.8860    2.0970 C.3    19  ILE19       0.1727
     19  CB        -5.4710    2.2040    3.1630 C.3    19  ILE19       0.0290
     20  CG2       -5.1840    3.1650    4.3090 C.3    19  ILE19       0.0023
     21  CG1       -6.1520    0.8640    3.6900 C.3    19  ILE19       0.0022
     22  CD1       -5.5640    0.1860    4.9100 C.3    19  ILE19       0.0001
     23  C         -5.7590    4.0730    1.4210 C.2    19  ILE19       0.2616
     24  O         -6.0490    5.1730    1.8250 O.2    19  ILE19      -0.2715
     25  N         -4.8150    3.8950    0.4790 N.am   20  ILE20      -0.1963
     26  CA        -4.2330    4.9020   -0.4020 C.3    20  ILE20       0.1727
     27  CB        -2.8050    5.3000    0.0680 C.3    20  ILE20       0.0290
     28  CG2       -2.8110    6.1260    1.4110 C.3    20  ILE20       0.0023
     29  CG1       -1.8290    4.1090    0.1720 C.3    20  ILE20       0.0022
     30  CD1       -0.3670    4.5410    0.3990 C.3    20  ILE20       0.0001
     31  C         -4.1810    4.4800   -1.8450 C.2    20  ILE20       0.2617
     32  O         -4.4770    3.2490   -2.1480 O.2    20  ILE20      -0.2715
     33  N         -3.9440    5.5160   -2.6450 N.am   21  TRP21      -0.1941
     34  CA        -3.5940    5.3680   -4.0770 C.3    21  TRP21       0.1982
     35  CB        -4.4580    6.4030   -4.9110 C.3    21  TRP21       0.0394
     36  CG        -4.3280    6.3820   -6.4230 C.3    21  TRP21       0.0475
     37  CD1       -4.4150    7.5280   -7.1320 C.3    21  TRP21       0.1166
     38  NE1       -4.1980    7.3100   -8.4730 N.pl3  21  TRP21      -0.2376
     39  CE2       -4.0690    5.9840   -8.7560 C.ar   21  TRP21       0.0614
     40  CZ2       -3.7460    5.2670   -9.9520 C.ar   21  TRP21       0.0158
     41  CH2       -3.6540    3.8750   -9.8130 C.ar   21  TRP21       0.0013
     42  CZ3       -4.0280    3.2260   -8.6640 C.ar   21  TRP21      -0.0002
     43  CE3       -4.2890    4.0000   -7.5300 C.ar   21  TRP21      -0.0030
     44  CD2       -4.2870    5.3570   -7.4880 C.ar   21  TRP21      -0.0059
     45  C         -2.1160    5.4700   -4.2830 C.2    21  TRP21       0.3842
     46  O         -1.4560    6.4110   -3.8260 O.co2  21  TRP21      -0.2437
     47  OXT       -1.5070    4.6100   -5.0100 O.co2  21  TRP21      -0.2437
@<TRIPOS>BOND
     1    40    41   ar
     2    40    39   ar
     3    41    42   ar
     4    39    38    1
     5    39    44   ar
     6    42    43   ar
     7    38    37    1
     8    43    44   ar
     9    44    36    1
    10    37    36    1
    11    36    35    1
    12    47    45   ar
    13     5     4    1
    14    35    34    1
    15    45    34    1
    16    45    46   ar
    17    34    33    1
    18     8     7    2
    19     4     6    1
    20     4     3    1
    21     2     3    1
    22     2     1    1
    23     2     7    1
    24     7     9   am
    25    33    31   am
    26    32    31    2
    27    31    26    1
    28     9    10    1
    29    10    11    1
    30    10    15    1
    31    26    27    1
    32    26    25    1
    33    11    12    1
    34    13    12   ar
    35    27    29    1
    36    27    28    1
    37    29    30    1
    38    16    15    2
    39    15    17   am
    40    12    14   ar
    41    25    23   am
    42    17    18    1
    43    23    24    2
    44    23    18    1
    45    18    19    1
    46    19    21    1
    47    19    20    1
    48    21    22    1
@<TRIPOS>MOLECULE
16219006
 44 47 0 0 0
SMALL
GASTEIGER

@<TRIPOS>ATOM
      1 O          -8.8137    2.1435    0.6247 O.2     1  PRO11      -0.2738
      2 O          -6.4225   -1.3238   -0.7337 O.2     5  ASP55      -0.2735
      3 O          -4.0090    1.3320    0.0077 O.2     2  VAL22      -0.2738
      4 O          -7.6730    0.2679   -5.2534 O.2     4  TRP44      -0.2738
      5 O          -6.3731    3.3371   -3.1351 O.2     3  LEU33      -0.2738
      6 OD1        -4.7362   -2.5961   -5.1709 O.co2   5  ASP55      -0.5497
      7 OD2        -6.5908   -3.9330   -5.0295 O.co2   5  ASP55      -0.5497
      8 N          -8.4287   -0.5458   -1.4222 N.am    1  PRO11      -0.2884
      9 N          -6.8613    0.9619    0.7427 N.am    2  VAL22      -0.3022
     10 N          -6.1586   -0.3119   -3.6229 N.am    5  ASP55      -0.3021
     11 N          -5.0270    3.2339   -0.7678 N.am    3  LEU33      -0.3025
     12 N          -4.7546    1.9879   -4.0360 N.am    4  TRP44      -0.3022
     13 NE1        -1.7867    2.8631   -7.3208 N.ar    4  TRP44      -0.3604
     14 CA         -8.8618   -0.2127   -0.0634 C.3     1  PRO11       0.1023
     15 CB        -10.3822   -0.0937   -0.1816 C.3     1  PRO11      -0.0243
     16 CG        -10.5865    0.3867   -1.6132 C.3     1  PRO11      -0.0350
     17 CD         -9.5020   -0.3510   -2.3841 C.3     1  PRO11       0.0156
     18 C          -8.2002    1.0934    0.4450 C.2     1  PRO11       0.2342
     19 C          -7.2230   -1.1714   -1.6668 C.2     5  ASP55       0.2369
     20 CA         -6.0227    2.0819    1.1572 C.3     2  VAL22       0.1017
     21 CA         -6.8468   -1.5025   -3.1302 C.3     5  ASP55       0.1047
     22 CB         -5.4553    1.8634    2.5771 C.3     2  VAL22      -0.0197
     23 CA         -4.2419    3.2712   -1.9963 C.3     3  LEU33       0.0996
     24 C          -4.9043    2.1688    0.1018 C.2     2  VAL22       0.2342
     25 CB         -5.9172   -2.7076   -3.1459 C.3     5  ASP55       0.0138
     26 CA         -5.6103    1.5351   -5.1429 C.3     4  TRP44       0.1034
     27 CB         -3.6978    4.6722   -2.3083 C.3     3  LEU33      -0.0236
     28 CG         -2.5012    5.1093   -1.4371 C.3     3  LEU33      -0.0446
     29 C          -6.6091    0.4614   -4.6677 C.2     4  TRP44       0.2343
     30 CB         -4.7879    0.9722   -6.3116 C.3     4  TRP44       0.0013
     31 C          -5.2333    2.8717   -3.1016 C.2     3  LEU33       0.2340
     32 CG1        -4.4565    2.9618    2.9610 C.3     2  VAL22      -0.0605
     33 CG2        -6.5819    1.8342    3.6174 C.3     2  VAL22      -0.0605
     34 CG         -3.7551    1.9396   -6.8261 C.ar    4  TRP44      -0.0201
     35 CG         -5.7369   -3.1119   -4.5949 C.2     5  ASP55       0.0440
     36 CD1        -2.8874    5.3866    0.0161 C.3     3  LEU33      -0.0626
     37 CD2        -1.8634    6.3676   -2.0343 C.3     3  LEU33      -0.0626
     38 CD2        -3.9840    3.2085   -7.4517 C.ar    4  TRP44       0.0029
     39 CD1        -2.3853    1.7635   -6.7720 C.ar    4  TRP44       0.0060
     40 CE2        -2.7364    3.7687   -7.7313 C.ar    4  TRP44       0.0467
     41 CE3        -5.1385    3.9399   -7.7997 C.ar    4  TRP44      -0.0523
     42 CZ2        -2.5855    5.0264   -8.3287 C.ar    4  TRP44      -0.0378
     43 CZ3        -5.0063    5.1995   -8.3955 C.ar    4  TRP44      -0.0611
     44 CH2        -3.7467    5.7340   -8.6528 C.ar    4  TRP44      -0.0598
@<TRIPOS>BOND
     1     1    18    2
     2     2    19    2
     3     3    24    2
     4     4    29    2
     5     5    31    2
     6     6    35   ar
     7     7    35   ar
     8     8    14    1
     9     8    17    1
    10     8    19   am
    11     9    18   am
    12     9    20    1
    13    10    21    1
    14    10    29   am
    15    11    23    1
    16    11    24   am
    17    12    26    1
    18    12    31   am
    19    13    39   ar
    20    13    40   ar
    21    14    15    1
    22    14    18    1
    23    15    16    1
    24    16    17    1
    25    19    21    1
    26    20    22    1
    27    20    24    1
    28    21    25    1
    29    22    32    1
    30    22    33    1
    31    23    27    1
    32    23    31    1
    33    25    35    1
    34    26    29    1
    35    26    30    1
    36    27    28    1
    37    28    36    1
    38    28    37    1
    39    30    34    1
    40    34    38   ar
    41    34    39   ar
    42    38    40   ar
    43    38    41   ar
    44    40    42   ar
    45    41    43   ar
    46    42    44   ar
    47    43    44   ar
