@<TRIPOS>MOLECULE
../1EDN/PCA2_17-21.pdb
 47 48 0 0 0
SMALL
GASTEIGER

@<TRIPOS>ATOM
      1  N         -4.4680    0.3970   -1.5420 N.3    17  LEU17      -0.1231
      2  CA        -5.5730   -0.5090   -1.8150 C.3    17  LEU17       0.1693
      3  CB        -5.9860   -1.2020   -0.4580 C.3    17  LEU17       0.0284
      4  CG        -7.1280   -2.2100   -0.5390 C.3    17  LEU17       0.0019
      5  CD1       -6.7120   -3.3620   -1.4700 C.3    17  LEU17       0.0001
      6  CD2       -7.4980   -2.5610    0.9130 C.3    17  LEU17       0.0001
      7  C         -6.7000    0.2280   -2.5610 C.2    17  LEU17       0.2592
      8  O         -7.1860   -0.2780   -3.5510 O.2    17  LEU17      -0.2718
      9  N         -7.2650    1.2690   -1.9650 N.am   18  ASP18      -0.1960
     10  CA        -8.5260    1.8930   -2.2590 C.3    18  ASP18       0.1840
     11  CB        -9.6810    1.0560   -1.6740 C.3    18  ASP18       0.1450
     12  CG       -11.0010    1.6360   -2.1090 C.2    18  ASP18       0.3671
     13  OD1      -11.5960    2.3310   -1.2790 O.co2  18  ASP18      -0.2456
     14  OD2      -11.5460    1.2700   -3.1630 O.co2  18  ASP18      -0.2456
     15  C         -8.5570    3.3770   -1.7380 C.2    18  ASP18       0.2622
     16  O         -8.6960    4.2620   -2.5680 O.2    18  ASP18      -0.2715
     17  N         -8.4180    3.5730   -0.4160 N.am   19  ILE19      -0.1963
     18  CA        -8.3980    4.9040    0.1930 C.3    19  ILE19       0.1727
     19  CB        -8.4260    4.8620    1.7600 C.3    19  ILE19       0.0290
     20  CG2       -7.7310    6.0060    2.5190 C.3    19  ILE19       0.0023
     21  CG1       -9.9240    4.5740    2.2500 C.3    19  ILE19       0.0022
     22  CD1      -10.9740    5.6950    2.0110 C.3    19  ILE19       0.0001
     23  C         -7.1570    5.7010   -0.3260 C.2    19  ILE19       0.2616
     24  O         -7.3050    6.7970   -0.9200 O.2    19  ILE19      -0.2715
     25  N         -5.9900    5.0720   -0.2260 N.am   20  ILE20      -0.1963
     26  CA        -4.7520    5.3490   -0.9430 C.3    20  ILE20       0.1727
     27  CB        -3.5230    4.9310   -0.1080 C.3    20  ILE20       0.0290
     28  CG2       -2.1210    5.5060   -0.7390 C.3    20  ILE20       0.0023
     29  CG1       -3.5940    5.4760    1.3470 C.3    20  ILE20       0.0022
     30  CD1       -2.3570    5.1940    2.2260 C.3    20  ILE20       0.0001
     31  C         -4.7590    4.7050   -2.3650 C.2    20  ILE20       0.2617
     32  O         -4.2060    3.6200   -2.5900 O.2    20  ILE20      -0.2715
     33  N         -5.4060    5.3330   -3.3880 N.am   21  TRP21      -0.1938
     34  CA        -5.3950    4.7680   -4.7850 C.3    21  TRP21       0.2021
     35  CB        -6.6210    3.8650   -5.0310 C.3    21  TRP21       0.0612
     36  CG        -6.7890    3.3770   -6.4480 C.ar   21  TRP21       0.0007
     37  CD1       -7.1340    4.1960   -7.4760 C.ar   21  TRP21       0.0946
     38  NE1       -7.1740    3.4060   -8.6160 N.ar   21  TRP21      -0.2442
     39  CE2       -6.9360    2.0750   -8.3350 C.ar   21  TRP21       0.0810
     40  CZ2       -6.8300    1.0510   -9.2060 C.ar   21  TRP21       0.0191
     41  CH2       -6.3330   -0.2010   -8.7710 C.ar   21  TRP21       0.0015
     42  CZ3       -5.9560   -0.2520   -7.3640 C.ar   21  TRP21       0.0001
     43  CE3       -6.0150    0.8940   -6.5860 C.ar   21  TRP21       0.0012
     44  CD2       -6.6320    2.0560   -6.9830 C.ar   21  TRP21       0.0152
     45  C         -5.1960    5.8550   -5.8260 C.2    21  TRP21       0.3845
     46  O         -4.1840    5.6720   -6.5070 O.co2  21  TRP21      -0.2437
     47  OXT       -5.9640    6.8330   -6.0170 O.co2  21  TRP21      -0.2437
@<TRIPOS>BOND
     1    40    41   ar
     2    40    39   ar
     3    41    42   ar
     4    38    39   ar
     5    38    37   ar
     6    39    44   ar
     7    37    36   ar
     8    42    43   ar
     9    44    43   ar
    10    44    36   ar
    11    46    45   ar
    12    36    35    1
    13    47    45   ar
    14    45    34    1
    15    35    34    1
    16    34    33    1
    17     8     7    2
    18    33    31   am
    19    14    12   ar
    20    32    31    2
    21    16    15    2
    22     7     9   am
    23     7     2    1
    24    31    26    1
    25    10     9    1
    26    10    15    1
    27    10    11    1
    28    12    11    1
    29    12    13   ar
    30     2     1    1
    31     2     3    1
    32    15    17   am
    33     5     4    1
    34    26    25    1
    35    26    27    1
    36    24    23    2
    37    28    27    1
    38     4     3    1
    39     4     6    1
    40    17    18    1
    41    23    25   am
    42    23    18    1
    43    27    29    1
    44    18    19    1
    45    29    30    1
    46    19    21    1
    47    19    20    1
    48    22    21    1
@<TRIPOS>MOLECULE
16219006
 44 47 0 0 0
SMALL
GASTEIGER

@<TRIPOS>ATOM
      1 O          -3.6820    3.7433    1.1200 O.2     1  PRO11      -0.2738
      2 O          -6.0156    4.3017   -2.3797 O.2     5  ASP55      -0.2735
      3 O          -7.6366    1.9566   -0.7908 O.2     2  VAL22      -0.2738
      4 O          -2.7269    1.6156   -4.6403 O.2     4  TRP44      -0.2738
      5 O          -3.9347   -0.5733   -1.2693 O.2     3  LEU33      -0.2738
      6 OD1        -3.9437    6.2595   -5.2176 O.co2   5  ASP55      -0.5497
      7 OD2        -6.1746    6.7049   -5.3476 O.co2   5  ASP55      -0.5497
      8 N          -3.8100    4.6639   -2.0214 N.am    1  PRO11      -0.2884
      9 N          -5.8112    3.9857    0.3094 N.am    2  VAL22      -0.3022
     10 N          -4.8506    2.3559   -4.1798 N.am    5  ASP55      -0.3021
     11 N          -6.1286    0.5939    0.2474 N.am    3  LEU33      -0.3025
     12 N          -5.3919   -0.1654   -3.0003 N.am    4  TRP44      -0.3022
     13 NE1        -8.0678    0.6107   -6.4688 N.ar    4  TRP44      -0.3604
     14 CA         -4.0357    5.3145   -0.7318 C.3     1  PRO11       0.1023
     15 CB         -2.6957    5.9780   -0.4019 C.3     1  PRO11      -0.0243
     16 CG         -1.6785    5.1317   -1.1590 C.3     1  PRO11      -0.0350
     17 CD         -2.4213    4.7703   -2.4341 C.3     1  PRO11       0.0156
     18 C          -4.4615    4.2805    0.3354 C.2     1  PRO11       0.2342
     19 C          -4.8648    4.3291   -2.8410 C.2     5  ASP55       0.2369
     20 CA         -6.3806    2.8941    1.0869 C.3     2  VAL22       0.1017
     21 CA         -4.5649    3.7964   -4.2617 C.3     5  ASP55       0.1047
     22 CB         -7.5385    3.3715    1.9913 C.3     2  VAL22      -0.0197
     23 CA         -6.3003   -0.4550   -0.7464 C.3     3  LEU33       0.0996
     24 C          -6.7957    1.7923    0.0910 C.2     2  VAL22       0.2342
     25 CB         -5.4819    4.4580   -5.2768 C.3     5  ASP55       0.0138
     26 CA         -4.3584   -0.0604   -4.0358 C.3     4  TRP44       0.1034
     27 CB         -6.4006   -1.8395   -0.0963 C.3     3  LEU33      -0.0236
     28 CG         -7.6436   -2.0330    0.7975 C.3     3  LEU33      -0.0446
     29 C          -3.8772    1.3877   -4.2668 C.2     4  TRP44       0.2343
     30 CB         -4.8079   -0.7180   -5.3514 C.3     4  TRP44       0.0013
     31 C          -5.0806   -0.4067   -1.6822 C.2     3  LEU33       0.2340
     32 CG1        -8.7094    4.0164    1.2440 C.3     2  VAL22      -0.0605
     33 CG2        -8.0508    2.2332    2.8802 C.3     2  VAL22      -0.0605
     34 CG         -5.9955   -0.0820   -6.0179 C.ar    4  TRP44      -0.0201
     35 CG         -5.1667    5.9491   -5.2813 C.2     5  ASP55       0.0440
     36 CD1        -7.6487   -3.4524    1.3698 C.3     3  LEU33      -0.0626
     37 CD2        -8.9558   -1.7754    0.0529 C.3     3  LEU33      -0.0626
     38 CD2        -5.9706    0.7151   -7.2099 C.ar    4  TRP44       0.0029
     39 CD1        -7.3179   -0.1590   -5.6201 C.ar    4  TRP44       0.0060
     40 CE2        -7.2777    1.1273   -7.4667 C.ar    4  TRP44       0.0467
     41 CE3        -4.9517    1.1354   -8.0894 C.ar    4  TRP44      -0.0523
     42 CZ2        -7.6189    1.9374   -8.5562 C.ar    4  TRP44      -0.0378
     43 CZ3        -5.2760    1.9369   -9.1900 C.ar    4  TRP44      -0.0611
     44 CH2        -6.5917    2.3317   -9.4172 C.ar    4  TRP44      -0.0598
@<TRIPOS>BOND
     1     1    18    2
     2     2    19    2
     3     3    24    2
     4     4    29    2
     5     5    31    2
     6     6    35   ar
     7     7    35   ar
     8     8    14    1
     9     8    17    1
    10     8    19   am
    11     9    18   am
    12     9    20    1
    13    10    21    1
    14    10    29   am
    15    11    23    1
    16    11    24   am
    17    12    26    1
    18    12    31   am
    19    13    39   ar
    20    13    40   ar
    21    14    15    1
    22    14    18    1
    23    15    16    1
    24    16    17    1
    25    19    21    1
    26    20    22    1
    27    20    24    1
    28    21    25    1
    29    22    32    1
    30    22    33    1
    31    23    27    1
    32    23    31    1
    33    25    35    1
    34    26    29    1
    35    26    30    1
    36    27    28    1
    37    28    36    1
    38    28    37    1
    39    30    34    1
    40    34    38   ar
    41    34    39   ar
    42    38    40   ar
    43    38    41   ar
    44    40    42   ar
    45    41    43   ar
    46    42    44   ar
    47    43    44   ar
