@<TRIPOS>MOLECULE
../1EDN/PCA2_17-21.pdb
 47 48 0 0 0
SMALL
GASTEIGER

@<TRIPOS>ATOM
      1  N         -4.4680    0.3970   -1.5420 N.3    17  LEU17      -0.1231
      2  CA        -5.5730   -0.5090   -1.8150 C.3    17  LEU17       0.1693
      3  CB        -5.9860   -1.2020   -0.4580 C.3    17  LEU17       0.0284
      4  CG        -7.1280   -2.2100   -0.5390 C.3    17  LEU17       0.0019
      5  CD1       -6.7120   -3.3620   -1.4700 C.3    17  LEU17       0.0001
      6  CD2       -7.4980   -2.5610    0.9130 C.3    17  LEU17       0.0001
      7  C         -6.7000    0.2280   -2.5610 C.2    17  LEU17       0.2592
      8  O         -7.1860   -0.2780   -3.5510 O.2    17  LEU17      -0.2718
      9  N         -7.2650    1.2690   -1.9650 N.am   18  ASP18      -0.1960
     10  CA        -8.5260    1.8930   -2.2590 C.3    18  ASP18       0.1840
     11  CB        -9.6810    1.0560   -1.6740 C.3    18  ASP18       0.1450
     12  CG       -11.0010    1.6360   -2.1090 C.2    18  ASP18       0.3671
     13  OD1      -11.5960    2.3310   -1.2790 O.co2  18  ASP18      -0.2456
     14  OD2      -11.5460    1.2700   -3.1630 O.co2  18  ASP18      -0.2456
     15  C         -8.5570    3.3770   -1.7380 C.2    18  ASP18       0.2622
     16  O         -8.6960    4.2620   -2.5680 O.2    18  ASP18      -0.2715
     17  N         -8.4180    3.5730   -0.4160 N.am   19  ILE19      -0.1963
     18  CA        -8.3980    4.9040    0.1930 C.3    19  ILE19       0.1727
     19  CB        -8.4260    4.8620    1.7600 C.3    19  ILE19       0.0290
     20  CG2       -7.7310    6.0060    2.5190 C.3    19  ILE19       0.0023
     21  CG1       -9.9240    4.5740    2.2500 C.3    19  ILE19       0.0022
     22  CD1      -10.9740    5.6950    2.0110 C.3    19  ILE19       0.0001
     23  C         -7.1570    5.7010   -0.3260 C.2    19  ILE19       0.2616
     24  O         -7.3050    6.7970   -0.9200 O.2    19  ILE19      -0.2715
     25  N         -5.9900    5.0720   -0.2260 N.am   20  ILE20      -0.1963
     26  CA        -4.7520    5.3490   -0.9430 C.3    20  ILE20       0.1727
     27  CB        -3.5230    4.9310   -0.1080 C.3    20  ILE20       0.0290
     28  CG2       -2.1210    5.5060   -0.7390 C.3    20  ILE20       0.0023
     29  CG1       -3.5940    5.4760    1.3470 C.3    20  ILE20       0.0022
     30  CD1       -2.3570    5.1940    2.2260 C.3    20  ILE20       0.0001
     31  C         -4.7590    4.7050   -2.3650 C.2    20  ILE20       0.2617
     32  O         -4.2060    3.6200   -2.5900 O.2    20  ILE20      -0.2715
     33  N         -5.4060    5.3330   -3.3880 N.am   21  TRP21      -0.1938
     34  CA        -5.3950    4.7680   -4.7850 C.3    21  TRP21       0.2021
     35  CB        -6.6210    3.8650   -5.0310 C.3    21  TRP21       0.0612
     36  CG        -6.7890    3.3770   -6.4480 C.ar   21  TRP21       0.0007
     37  CD1       -7.1340    4.1960   -7.4760 C.ar   21  TRP21       0.0946
     38  NE1       -7.1740    3.4060   -8.6160 N.ar   21  TRP21      -0.2442
     39  CE2       -6.9360    2.0750   -8.3350 C.ar   21  TRP21       0.0810
     40  CZ2       -6.8300    1.0510   -9.2060 C.ar   21  TRP21       0.0191
     41  CH2       -6.3330   -0.2010   -8.7710 C.ar   21  TRP21       0.0015
     42  CZ3       -5.9560   -0.2520   -7.3640 C.ar   21  TRP21       0.0001
     43  CE3       -6.0150    0.8940   -6.5860 C.ar   21  TRP21       0.0012
     44  CD2       -6.6320    2.0560   -6.9830 C.ar   21  TRP21       0.0152
     45  C         -5.1960    5.8550   -5.8260 C.2    21  TRP21       0.3845
     46  O         -4.1840    5.6720   -6.5070 O.co2  21  TRP21      -0.2437
     47  OXT       -5.9640    6.8330   -6.0170 O.co2  21  TRP21      -0.2437
@<TRIPOS>BOND
     1    40    41   ar
     2    40    39   ar
     3    41    42   ar
     4    38    39   ar
     5    38    37   ar
     6    39    44   ar
     7    37    36   ar
     8    42    43   ar
     9    44    43   ar
    10    44    36   ar
    11    46    45   ar
    12    36    35    1
    13    47    45   ar
    14    45    34    1
    15    35    34    1
    16    34    33    1
    17     8     7    2
    18    33    31   am
    19    14    12   ar
    20    32    31    2
    21    16    15    2
    22     7     9   am
    23     7     2    1
    24    31    26    1
    25    10     9    1
    26    10    15    1
    27    10    11    1
    28    12    11    1
    29    12    13   ar
    30     2     1    1
    31     2     3    1
    32    15    17   am
    33     5     4    1
    34    26    25    1
    35    26    27    1
    36    24    23    2
    37    28    27    1
    38     4     3    1
    39     4     6    1
    40    17    18    1
    41    23    25   am
    42    23    18    1
    43    27    29    1
    44    18    19    1
    45    29    30    1
    46    19    21    1
    47    19    20    1
    48    22    21    1
@<TRIPOS>MOLECULE
16219006
 44 47 0 0 0
SMALL
GASTEIGER

@<TRIPOS>ATOM
      1 O          -7.1165    6.6327    0.3454 O.2     1  PRO11      -0.2738
      2 O          -7.2202    2.3711   -0.1434 O.2     5  ASP55      -0.2735
      3 O          -4.1836    3.3886   -1.7980 O.2     2  VAL22      -0.2738
      4 O         -10.7728    3.0809   -3.3730 O.2     4  TRP44      -0.2738
      5 O          -7.6169    5.4942   -3.8995 O.2     3  LEU33      -0.2738
      6 OD1        -9.6720   -1.2911    0.6407 O.co2   5  ASP55      -0.5497
      7 OD2       -10.2476    0.8750    1.0615 O.co2   5  ASP55      -0.5497
      8 N          -8.9085    3.8483    0.1886 N.am    1  PRO11      -0.2884
      9 N          -5.8967    4.6975    0.3391 N.am    2  VAL22      -0.3022
     10 N          -8.8331    2.1239   -2.5950 N.am    5  ASP55      -0.3021
     11 N          -5.1352    5.2480   -2.7379 N.am    3  LEU33      -0.3025
     12 N          -7.3954    3.3283   -4.6066 N.am    4  TRP44      -0.3022
     13 NE1        -7.9298    3.0136   -9.1386 N.ar    4  TRP44      -0.3604
     14 CA         -8.1797    4.5943    1.2126 C.3     1  PRO11       0.1023
     15 CB         -9.2463    5.4639    1.8844 C.3     1  PRO11      -0.0243
     16 CG        -10.3066    5.6307    0.8033 C.3     1  PRO11      -0.0350
     17 CD        -10.2936    4.2784    0.1103 C.3     1  PRO11       0.0156
     18 C          -7.0365    5.4306    0.5927 C.2     1  PRO11       0.2342
     19 C          -8.4189    2.6526   -0.2982 C.2     5  ASP55       0.2369
     20 CA         -4.7225    5.2556   -0.3210 C.3     2  VAL22       0.1017
     21 CA         -9.3189    1.8130   -1.2399 C.3     5  ASP55       0.1047
     22 CB         -3.4556    5.0546    0.5385 C.3     2  VAL22      -0.0197
     23 CA         -5.3681    4.6043   -4.0234 C.3     3  LEU33       0.0996
     24 C          -4.6241    4.5297   -1.6756 C.2     2  VAL22       0.2342
     25 CB         -9.1543    0.3262   -0.9749 C.3     5  ASP55       0.0138
     26 CA         -8.8378    3.1521   -4.8238 C.3     4  TRP44       0.1034
     27 CB         -4.8031    5.4108   -5.2018 C.3     3  LEU33      -0.0236
     28 CG         -3.2705    5.3246   -5.3680 C.3     3  LEU33      -0.0446
     29 C          -9.5734    2.8479   -3.5044 C.2     4  TRP44       0.2343
     30 CB         -9.1381    2.0084   -5.8042 C.3     4  TRP44       0.0013
     31 C          -6.8984    4.5295   -4.1602 C.2     3  LEU33       0.2340
     32 CG1        -2.1944    5.5208   -0.1984 C.3     2  VAL22      -0.0605
     33 CG2        -3.5681    5.8250    1.8603 C.3     2  VAL22      -0.0605
     34 CG         -8.4798    2.1887   -7.1417 C.ar    4  TRP44      -0.0201
     35 CG         -9.7458   -0.0577    0.3759 C.2     5  ASP55       0.0440
     36 CD1        -2.5050    6.0805   -4.2815 C.3     3  LEU33      -0.0626
     37 CD2        -2.8685    5.8803   -6.7382 C.3     3  LEU33      -0.0626
     38 CD2        -7.4522    1.3696   -7.7118 C.ar    4  TRP44       0.0029
     39 CD1        -8.7513    3.1858   -8.0588 C.ar    4  TRP44       0.0060
     40 CE2        -7.1263    1.9132   -8.9551 C.ar    4  TRP44       0.0467
     41 CE3        -6.7666    0.2133   -7.2852 C.ar    4  TRP44      -0.0523
     42 CZ2        -6.1482    1.3616   -9.7915 C.ar    4  TRP44      -0.0378
     43 CZ3        -5.7881   -0.3530   -8.1104 C.ar    4  TRP44      -0.0611
     44 CH2        -5.4845    0.2154   -9.3448 C.ar    4  TRP44      -0.0598
@<TRIPOS>BOND
     1     1    18    2
     2     2    19    2
     3     3    24    2
     4     4    29    2
     5     5    31    2
     6     6    35   ar
     7     7    35   ar
     8     8    14    1
     9     8    17    1
    10     8    19   am
    11     9    18   am
    12     9    20    1
    13    10    21    1
    14    10    29   am
    15    11    23    1
    16    11    24   am
    17    12    26    1
    18    12    31   am
    19    13    39   ar
    20    13    40   ar
    21    14    15    1
    22    14    18    1
    23    15    16    1
    24    16    17    1
    25    19    21    1
    26    20    22    1
    27    20    24    1
    28    21    25    1
    29    22    32    1
    30    22    33    1
    31    23    27    1
    32    23    31    1
    33    25    35    1
    34    26    29    1
    35    26    30    1
    36    27    28    1
    37    28    36    1
    38    28    37    1
    39    30    34    1
    40    34    38   ar
    41    34    39   ar
    42    38    40   ar
    43    38    41   ar
    44    40    42   ar
    45    41    43   ar
    46    42    44   ar
    47    43    44   ar
