@<TRIPOS>MOLECULE
../1EDN/PCA2_17-21.pdb
 47 48 0 0 0
SMALL
GASTEIGER

@<TRIPOS>ATOM
      1  N         -4.4680    0.3970   -1.5420 N.3    17  LEU17      -0.1231
      2  CA        -5.5730   -0.5090   -1.8150 C.3    17  LEU17       0.1693
      3  CB        -5.9860   -1.2020   -0.4580 C.3    17  LEU17       0.0284
      4  CG        -7.1280   -2.2100   -0.5390 C.3    17  LEU17       0.0019
      5  CD1       -6.7120   -3.3620   -1.4700 C.3    17  LEU17       0.0001
      6  CD2       -7.4980   -2.5610    0.9130 C.3    17  LEU17       0.0001
      7  C         -6.7000    0.2280   -2.5610 C.2    17  LEU17       0.2592
      8  O         -7.1860   -0.2780   -3.5510 O.2    17  LEU17      -0.2718
      9  N         -7.2650    1.2690   -1.9650 N.am   18  ASP18      -0.1960
     10  CA        -8.5260    1.8930   -2.2590 C.3    18  ASP18       0.1840
     11  CB        -9.6810    1.0560   -1.6740 C.3    18  ASP18       0.1450
     12  CG       -11.0010    1.6360   -2.1090 C.2    18  ASP18       0.3671
     13  OD1      -11.5960    2.3310   -1.2790 O.co2  18  ASP18      -0.2456
     14  OD2      -11.5460    1.2700   -3.1630 O.co2  18  ASP18      -0.2456
     15  C         -8.5570    3.3770   -1.7380 C.2    18  ASP18       0.2622
     16  O         -8.6960    4.2620   -2.5680 O.2    18  ASP18      -0.2715
     17  N         -8.4180    3.5730   -0.4160 N.am   19  ILE19      -0.1963
     18  CA        -8.3980    4.9040    0.1930 C.3    19  ILE19       0.1727
     19  CB        -8.4260    4.8620    1.7600 C.3    19  ILE19       0.0290
     20  CG2       -7.7310    6.0060    2.5190 C.3    19  ILE19       0.0023
     21  CG1       -9.9240    4.5740    2.2500 C.3    19  ILE19       0.0022
     22  CD1      -10.9740    5.6950    2.0110 C.3    19  ILE19       0.0001
     23  C         -7.1570    5.7010   -0.3260 C.2    19  ILE19       0.2616
     24  O         -7.3050    6.7970   -0.9200 O.2    19  ILE19      -0.2715
     25  N         -5.9900    5.0720   -0.2260 N.am   20  ILE20      -0.1963
     26  CA        -4.7520    5.3490   -0.9430 C.3    20  ILE20       0.1727
     27  CB        -3.5230    4.9310   -0.1080 C.3    20  ILE20       0.0290
     28  CG2       -2.1210    5.5060   -0.7390 C.3    20  ILE20       0.0023
     29  CG1       -3.5940    5.4760    1.3470 C.3    20  ILE20       0.0022
     30  CD1       -2.3570    5.1940    2.2260 C.3    20  ILE20       0.0001
     31  C         -4.7590    4.7050   -2.3650 C.2    20  ILE20       0.2617
     32  O         -4.2060    3.6200   -2.5900 O.2    20  ILE20      -0.2715
     33  N         -5.4060    5.3330   -3.3880 N.am   21  TRP21      -0.1938
     34  CA        -5.3950    4.7680   -4.7850 C.3    21  TRP21       0.2021
     35  CB        -6.6210    3.8650   -5.0310 C.3    21  TRP21       0.0612
     36  CG        -6.7890    3.3770   -6.4480 C.ar   21  TRP21       0.0007
     37  CD1       -7.1340    4.1960   -7.4760 C.ar   21  TRP21       0.0946
     38  NE1       -7.1740    3.4060   -8.6160 N.ar   21  TRP21      -0.2442
     39  CE2       -6.9360    2.0750   -8.3350 C.ar   21  TRP21       0.0810
     40  CZ2       -6.8300    1.0510   -9.2060 C.ar   21  TRP21       0.0191
     41  CH2       -6.3330   -0.2010   -8.7710 C.ar   21  TRP21       0.0015
     42  CZ3       -5.9560   -0.2520   -7.3640 C.ar   21  TRP21       0.0001
     43  CE3       -6.0150    0.8940   -6.5860 C.ar   21  TRP21       0.0012
     44  CD2       -6.6320    2.0560   -6.9830 C.ar   21  TRP21       0.0152
     45  C         -5.1960    5.8550   -5.8260 C.2    21  TRP21       0.3845
     46  O         -4.1840    5.6720   -6.5070 O.co2  21  TRP21      -0.2437
     47  OXT       -5.9640    6.8330   -6.0170 O.co2  21  TRP21      -0.2437
@<TRIPOS>BOND
     1    40    41   ar
     2    40    39   ar
     3    41    42   ar
     4    38    39   ar
     5    38    37   ar
     6    39    44   ar
     7    37    36   ar
     8    42    43   ar
     9    44    43   ar
    10    44    36   ar
    11    46    45   ar
    12    36    35    1
    13    47    45   ar
    14    45    34    1
    15    35    34    1
    16    34    33    1
    17     8     7    2
    18    33    31   am
    19    14    12   ar
    20    32    31    2
    21    16    15    2
    22     7     9   am
    23     7     2    1
    24    31    26    1
    25    10     9    1
    26    10    15    1
    27    10    11    1
    28    12    11    1
    29    12    13   ar
    30     2     1    1
    31     2     3    1
    32    15    17   am
    33     5     4    1
    34    26    25    1
    35    26    27    1
    36    24    23    2
    37    28    27    1
    38     4     3    1
    39     4     6    1
    40    17    18    1
    41    23    25   am
    42    23    18    1
    43    27    29    1
    44    18    19    1
    45    29    30    1
    46    19    21    1
    47    19    20    1
    48    22    21    1
@<TRIPOS>MOLECULE
16219006
 44 47 0 0 0
SMALL
GASTEIGER

@<TRIPOS>ATOM
      1 O          -7.1506    6.6151    0.2833 O.2     1  PRO11      -0.2738
      2 O          -7.2417    2.4474   -0.3365 O.2     5  ASP55      -0.2735
      3 O          -4.1223    3.4201   -1.8043 O.2     2  VAL22      -0.2738
      4 O         -10.7636    3.1858   -3.4304 O.2     4  TRP44      -0.2738
      5 O          -7.6133    5.4805   -3.9160 O.2     3  LEU33      -0.2738
      6 OD1        -9.0887   -0.4629    1.2492 O.co2   5  ASP55      -0.5497
      7 OD2       -10.9071    0.8052    0.7144 O.co2   5  ASP55      -0.5497
      8 N          -8.9474    3.8510    0.1692 N.am    1  PRO11      -0.2884
      9 N          -5.8946    4.7025    0.3244 N.am    2  VAL22      -0.3022
     10 N          -8.8962    2.0799   -2.6705 N.am    5  ASP55      -0.3021
     11 N          -5.1442    5.2428   -2.7414 N.am    3  LEU33      -0.3025
     12 N          -7.3891    3.3197   -4.6384 N.am    4  TRP44      -0.3022
     13 NE1        -7.9074    3.0023   -9.1844 N.ar    4  TRP44      -0.3604
     14 CA         -8.1826    4.5735    1.1829 C.3     1  PRO11       0.1023
     15 CB         -9.2240    5.4328    1.9065 C.3     1  PRO11      -0.0243
     16 CG        -10.3278    5.6116    0.8710 C.3     1  PRO11      -0.0350
     17 CD        -10.3383    4.2715    0.1563 C.3     1  PRO11       0.0156
     18 C          -7.0494    5.4205    0.5571 C.2     1  PRO11       0.2342
     19 C          -8.4528    2.7024   -0.4067 C.2     5  ASP55       0.2369
     20 CA         -4.7198    5.2694   -0.3271 C.3     2  VAL22       0.1017
     21 CA         -9.3873    1.8534   -1.3027 C.3     5  ASP55       0.1047
     22 CB         -3.4582    5.0754    0.5432 C.3     2  VAL22      -0.0197
     23 CA         -5.3649    4.5900   -4.0245 C.3     3  LEU33       0.0996
     24 C          -4.6034    4.5445   -1.6813 C.2     2  VAL22       0.2342
     25 CB         -9.2708    0.3821   -0.9395 C.3     5  ASP55       0.0138
     26 CA         -8.8290    3.1588   -4.8768 C.3     4  TRP44       0.1034
     27 CB         -4.7898    5.3900   -5.2031 C.3     3  LEU33      -0.0236
     28 CG         -3.2566    5.2992   -5.3628 C.3     3  LEU33      -0.0446
     29 C          -9.5818    2.8749   -3.5656 C.2     4  TRP44       0.2343
     30 CB         -9.1343    2.0137   -5.8530 C.3     4  TRP44       0.0013
     31 C          -6.8937    4.5159   -4.1753 C.2     3  LEU33       0.2340
     32 CG1        -2.1924    5.5475   -0.1826 C.3     2  VAL22      -0.0605
     33 CG2        -3.5855    5.8451    1.8641 C.3     2  VAL22      -0.0605
     34 CG         -8.4705    2.1860   -7.1878 C.ar    4  TRP44      -0.0201
     35 CG         -9.8090    0.2298    0.4772 C.2     5  ASP55       0.0440
     36 CD1        -2.4930    6.0527   -4.2736 C.3     3  LEU33      -0.0626
     37 CD2        -2.8477    5.8541   -6.7313 C.3     3  LEU33      -0.0626
     38 CD2        -7.4443    1.3605   -7.7502 C.ar    4  TRP44       0.0029
     39 CD1        -8.7333    3.1815   -8.1093 C.ar    4  TRP44       0.0060
     40 CE2        -7.1099    1.8984   -8.9935 C.ar    4  TRP44       0.0467
     41 CE3        -6.7663    0.2027   -7.3158 C.ar    4  TRP44      -0.0523
     42 CZ2        -6.1301    1.3399   -9.8228 C.ar    4  TRP44      -0.0378
     43 CZ3        -5.7866   -0.3709   -8.1341 C.ar    4  TRP44      -0.0611
     44 CH2        -5.4741    0.1922   -9.3685 C.ar    4  TRP44      -0.0598
@<TRIPOS>BOND
     1     1    18    2
     2     2    19    2
     3     3    24    2
     4     4    29    2
     5     5    31    2
     6     6    35   ar
     7     7    35   ar
     8     8    14    1
     9     8    17    1
    10     8    19   am
    11     9    18   am
    12     9    20    1
    13    10    21    1
    14    10    29   am
    15    11    23    1
    16    11    24   am
    17    12    26    1
    18    12    31   am
    19    13    39   ar
    20    13    40   ar
    21    14    15    1
    22    14    18    1
    23    15    16    1
    24    16    17    1
    25    19    21    1
    26    20    22    1
    27    20    24    1
    28    21    25    1
    29    22    32    1
    30    22    33    1
    31    23    27    1
    32    23    31    1
    33    25    35    1
    34    26    29    1
    35    26    30    1
    36    27    28    1
    37    28    36    1
    38    28    37    1
    39    30    34    1
    40    34    38   ar
    41    34    39   ar
    42    38    40   ar
    43    38    41   ar
    44    40    42   ar
    45    41    43   ar
    46    42    44   ar
    47    43    44   ar
