@<TRIPOS>MOLECULE
../1EDN/PCA3_17-21.pdb
 47 48 0 0 0
SMALL
GASTEIGER

@<TRIPOS>ATOM
      1  N         -4.2370    0.0490   -1.5930 N.3    17  LEU17      -0.1231
      2  CA        -5.5250   -0.5610   -1.9200 C.3    17  LEU17       0.1693
      3  CB        -5.7360   -1.8160   -1.1010 C.3    17  LEU17       0.0284
      4  CG        -6.9950   -2.5690   -1.5730 C.3    17  LEU17       0.0019
      5  CD1       -6.7530   -3.1800   -3.0080 C.3    17  LEU17       0.0001
      6  CD2       -7.2580   -3.7400   -0.6960 C.3    17  LEU17       0.0001
      7  C         -6.6810    0.4320   -1.9250 C.2    17  LEU17       0.2592
      8  O         -7.3270    0.6200   -2.9560 O.2    17  LEU17      -0.2718
      9  N         -6.9500    1.1080   -0.7900 N.am   18  ASP18      -0.1960
     10  CA        -8.0880    2.0070   -0.5710 C.3    18  ASP18       0.1840
     11  CB        -9.1090    1.3410    0.3760 C.3    18  ASP18       0.1450
     12  CG       -10.1470    2.2990    0.9520 C.2    18  ASP18       0.3671
     13  OD1      -11.0720    2.5310    0.1500 O.co2  18  ASP18      -0.2456
     14  OD2      -10.1960    2.6850    2.1610 O.co2  18  ASP18      -0.2456
     15  C         -7.6280    3.3500    0.0060 C.2    18  ASP18       0.2622
     16  O         -7.9950    4.4650   -0.3580 O.2    18  ASP18      -0.2715
     17  N         -6.8140    3.2050    1.0390 N.am   19  ILE19      -0.1963
     18  CA        -6.1800    4.3790    1.8160 C.3    19  ILE19       0.1727
     19  CB        -5.3140    3.8890    3.0670 C.3    19  ILE19       0.0290
     20  CG2       -4.6600    5.0630    3.8540 C.3    19  ILE19       0.0023
     21  CG1       -6.1440    2.9790    3.9890 C.3    19  ILE19       0.0022
     22  CD1       -5.5170    2.2940    5.2130 C.3    19  ILE19       0.0001
     23  C         -5.2670    5.2520    0.8640 C.2    19  ILE19       0.2616
     24  O         -5.3920    6.4650    0.9090 O.2    19  ILE19      -0.2715
     25  N         -4.4890    4.6060    0.0020 N.am   20  ILE20      -0.1963
     26  CA        -3.9690    5.2910   -1.1850 C.3    20  ILE20       0.1727
     27  CB        -2.4460    5.7340   -1.0120 C.3    20  ILE20       0.0290
     28  CG2       -2.3030    7.0110   -0.1100 C.3    20  ILE20       0.0023
     29  CG1       -1.4300    4.6170   -0.6100 C.3    20  ILE20       0.0022
     30  CD1        0.0800    4.9990   -0.7110 C.3    20  ILE20       0.0001
     31  C         -4.1660    4.3690   -2.4130 C.2    20  ILE20       0.2617
     32  O         -3.9200    3.1710   -2.5010 O.2    20  ILE20      -0.2715
     33  N         -4.6410    5.0460   -3.5090 N.am   21  TRP21      -0.1938
     34  CA        -4.8980    4.4430   -4.8120 C.3    21  TRP21       0.2021
     35  CB        -6.2680    3.7450   -4.8170 C.3    21  TRP21       0.0612
     36  CG        -6.5090    2.9660   -6.0890 C.ar   21  TRP21       0.0007
     37  CD1       -7.0550    3.4090   -7.2190 C.ar   21  TRP21       0.0946
     38  NE1       -7.1560    2.4190   -8.1260 N.ar   21  TRP21      -0.2442
     39  CE2       -6.6880    1.2600   -7.6470 C.ar   21  TRP21       0.0810
     40  CZ2       -6.5320   -0.1050   -8.0600 C.ar   21  TRP21       0.0191
     41  CH2       -5.9630   -1.0770   -7.2340 C.ar   21  TRP21       0.0015
     42  CZ3       -5.4330   -0.7150   -5.9030 C.ar   21  TRP21       0.0001
     43  CE3       -5.5290    0.6400   -5.5430 C.ar   21  TRP21       0.0012
     44  CD2       -6.2440    1.5830   -6.3190 C.ar   21  TRP21       0.0152
     45  C         -4.7460    5.5030   -5.9410 C.2    21  TRP21       0.3845
     46  O         -5.6740    6.3580   -6.0770 O.co2  21  TRP21      -0.2437
     47  OXT       -3.7150    5.4030   -6.6310 O.co2  21  TRP21      -0.2437
@<TRIPOS>BOND
     1    38    39   ar
     2    38    37   ar
     3    40    39   ar
     4    40    41   ar
     5    39    44   ar
     6    41    42   ar
     7    37    36   ar
     8    47    45   ar
     9    44    36   ar
    10    44    43   ar
    11    36    35    1
    12    46    45   ar
    13    45    34    1
    14    42    43   ar
    15    35    34    1
    16    34    33    1
    17    33    31   am
    18     5     4    1
    19     8     7    2
    20    32    31    2
    21    31    26    1
    22     7     2    1
    23     7     9   am
    24     2     1    1
    25     2     3    1
    26     4     3    1
    27     4     6    1
    28    26    27    1
    29    26    25    1
    30    27    29    1
    31    27    28    1
    32     9    10    1
    33    30    29    1
    34    10    15    1
    35    10    11    1
    36    16    15    2
    37    25    23   am
    38    15    17   am
    39    13    12   ar
    40    11    12    1
    41    23    24    2
    42    23    18    1
    43    12    14   ar
    44    17    18    1
    45    18    19    1
    46    19    20    1
    47    19    21    1
    48    21    22    1
@<TRIPOS>MOLECULE
16219006
 44 47 0 0 0
SMALL
GASTEIGER

@<TRIPOS>ATOM
      1 O          -6.1084    0.7972    3.5352 O.2     1  PRO11      -0.2738
      2 O          -8.9367    3.4352    1.3676 O.2     5  ASP55      -0.2735
      3 O          -5.3411    5.5490    2.0051 O.2     2  VAL22      -0.2738
      4 O          -7.6047    0.6098   -2.5119 O.2     4  TRP44      -0.2738
      5 O          -4.1655    1.8359   -0.9306 O.2     3  LEU33      -0.2738
      6 OD1        -8.5411    5.0430   -1.5470 O.co2   5  ASP55      -0.5497
      7 OD2       -10.7046    5.7199   -1.2203 O.co2   5  ASP55      -0.5497
      8 N          -8.6195    1.1998    1.3131 N.am    1  PRO11      -0.2884
      9 N          -6.7872    2.9364    3.1001 N.am    2  VAL22      -0.3022
     10 N          -7.9386    2.6165   -1.4829 N.am    5  ASP55      -0.3021
     11 N          -4.4229    3.5985    1.2367 N.am    3  LEU33      -0.3025
     12 N          -5.3976    3.4016   -2.0748 N.am    4  TRP44      -0.3022
     13 NE1        -8.2388    1.0403   -6.6868 N.ar    4  TRP44      -0.3604
     14 CA         -8.4108    1.1191    2.7588 C.3     1  PRO11       0.1023
     15 CB         -8.6665   -0.3557    3.0796 C.3     1  PRO11      -0.0243
     16 CG         -8.2284   -1.0744    1.8089 C.3     1  PRO11      -0.0350
     17 CD         -8.6623   -0.1213    0.7065 C.3     1  PRO11       0.0156
     18 C          -6.9845    1.5741    3.1581 C.2     1  PRO11       0.2342
     19 C          -8.9523    2.3956    0.7015 C.2     5  ASP55       0.2369
     20 CA         -5.5106    3.5723    3.4271 C.3     2  VAL22       0.1017
     21 CA         -9.2082    2.3727   -0.8255 C.3     5  ASP55       0.1047
     22 CB         -5.6251    4.4812    4.6726 C.3     2  VAL22      -0.0197
     23 CA         -4.1416    4.1118   -0.0993 C.3     3  LEU33       0.0996
     24 C          -5.0798    4.3614    2.1760 C.2     2  VAL22       0.2342
     25 CB        -10.2458    3.4096   -1.2487 C.3     5  ASP55       0.0138
     26 CA         -6.0155    2.4155   -2.9772 C.3     4  TRP44       0.1034
     27 CB         -2.6496    4.4387   -0.2564 C.3     3  LEU33      -0.0236
     28 CG         -2.2443    4.9528   -1.6545 C.3     3  LEU33      -0.0446
     29 C          -7.2345    1.7595   -2.2802 C.2     4  TRP44       0.2343
     30 CB         -6.4384    3.1325   -4.2646 C.3     4  TRP44       0.0013
     31 C          -4.5580    2.9941   -1.0648 C.2     3  LEU33       0.2340
     32 CG1        -4.2904    5.1781    4.9764 C.3     2  VAL22      -0.0605
     33 CG2        -6.0488    3.6809    5.9102 C.3     2  VAL22      -0.0605
     34 CG         -6.9027    2.2137   -5.3477 C.ar    4  TRP44      -0.0201
     35 CG         -9.7781    4.8675   -1.3127 C.2     5  ASP55       0.0440
     36 CD1        -2.9318    6.2700   -2.0156 C.3     3  LEU33      -0.0626
     37 CD2        -0.7248    5.1280   -1.7281 C.3     3  LEU33      -0.0626
     38 CD2        -6.0928    1.4544   -6.2499 C.ar    4  TRP44       0.0029
     39 CD1        -8.2194    1.9395   -5.6590 C.ar    4  TRP44       0.0060
     40 CE2        -6.9562    0.7337   -7.0764 C.ar    4  TRP44       0.0467
     41 CE3        -4.7030    1.3066   -6.4373 C.ar    4  TRP44      -0.0523
     42 CZ2        -6.5002   -0.1257   -8.0828 C.ar    4  TRP44      -0.0378
     43 CZ3        -4.2302    0.4518   -7.4399 C.ar    4  TRP44      -0.0611
     44 CH2        -5.1182   -0.2524   -8.2500 C.ar    4  TRP44      -0.0598
@<TRIPOS>BOND
     1     1    18    2
     2     2    19    2
     3     3    24    2
     4     4    29    2
     5     5    31    2
     6     6    35   ar
     7     7    35   ar
     8     8    14    1
     9     8    17    1
    10     8    19   am
    11     9    18   am
    12     9    20    1
    13    10    21    1
    14    10    29   am
    15    11    23    1
    16    11    24   am
    17    12    26    1
    18    12    31   am
    19    13    39   ar
    20    13    40   ar
    21    14    15    1
    22    14    18    1
    23    15    16    1
    24    16    17    1
    25    19    21    1
    26    20    22    1
    27    20    24    1
    28    21    25    1
    29    22    32    1
    30    22    33    1
    31    23    27    1
    32    23    31    1
    33    25    35    1
    34    26    29    1
    35    26    30    1
    36    27    28    1
    37    28    36    1
    38    28    37    1
    39    30    34    1
    40    34    38   ar
    41    34    39   ar
    42    38    40   ar
    43    38    41   ar
    44    40    42   ar
    45    41    43   ar
    46    42    44   ar
    47    43    44   ar
