@<TRIPOS>MOLECULE
../1EDN/PCA3_17-21.pdb
 47 48 0 0 0
SMALL
GASTEIGER

@<TRIPOS>ATOM
      1  N         -4.2370    0.0490   -1.5930 N.3    17  LEU17      -0.1231
      2  CA        -5.5250   -0.5610   -1.9200 C.3    17  LEU17       0.1693
      3  CB        -5.7360   -1.8160   -1.1010 C.3    17  LEU17       0.0284
      4  CG        -6.9950   -2.5690   -1.5730 C.3    17  LEU17       0.0019
      5  CD1       -6.7530   -3.1800   -3.0080 C.3    17  LEU17       0.0001
      6  CD2       -7.2580   -3.7400   -0.6960 C.3    17  LEU17       0.0001
      7  C         -6.6810    0.4320   -1.9250 C.2    17  LEU17       0.2592
      8  O         -7.3270    0.6200   -2.9560 O.2    17  LEU17      -0.2718
      9  N         -6.9500    1.1080   -0.7900 N.am   18  ASP18      -0.1960
     10  CA        -8.0880    2.0070   -0.5710 C.3    18  ASP18       0.1840
     11  CB        -9.1090    1.3410    0.3760 C.3    18  ASP18       0.1450
     12  CG       -10.1470    2.2990    0.9520 C.2    18  ASP18       0.3671
     13  OD1      -11.0720    2.5310    0.1500 O.co2  18  ASP18      -0.2456
     14  OD2      -10.1960    2.6850    2.1610 O.co2  18  ASP18      -0.2456
     15  C         -7.6280    3.3500    0.0060 C.2    18  ASP18       0.2622
     16  O         -7.9950    4.4650   -0.3580 O.2    18  ASP18      -0.2715
     17  N         -6.8140    3.2050    1.0390 N.am   19  ILE19      -0.1963
     18  CA        -6.1800    4.3790    1.8160 C.3    19  ILE19       0.1727
     19  CB        -5.3140    3.8890    3.0670 C.3    19  ILE19       0.0290
     20  CG2       -4.6600    5.0630    3.8540 C.3    19  ILE19       0.0023
     21  CG1       -6.1440    2.9790    3.9890 C.3    19  ILE19       0.0022
     22  CD1       -5.5170    2.2940    5.2130 C.3    19  ILE19       0.0001
     23  C         -5.2670    5.2520    0.8640 C.2    19  ILE19       0.2616
     24  O         -5.3920    6.4650    0.9090 O.2    19  ILE19      -0.2715
     25  N         -4.4890    4.6060    0.0020 N.am   20  ILE20      -0.1963
     26  CA        -3.9690    5.2910   -1.1850 C.3    20  ILE20       0.1727
     27  CB        -2.4460    5.7340   -1.0120 C.3    20  ILE20       0.0290
     28  CG2       -2.3030    7.0110   -0.1100 C.3    20  ILE20       0.0023
     29  CG1       -1.4300    4.6170   -0.6100 C.3    20  ILE20       0.0022
     30  CD1        0.0800    4.9990   -0.7110 C.3    20  ILE20       0.0001
     31  C         -4.1660    4.3690   -2.4130 C.2    20  ILE20       0.2617
     32  O         -3.9200    3.1710   -2.5010 O.2    20  ILE20      -0.2715
     33  N         -4.6410    5.0460   -3.5090 N.am   21  TRP21      -0.1938
     34  CA        -4.8980    4.4430   -4.8120 C.3    21  TRP21       0.2021
     35  CB        -6.2680    3.7450   -4.8170 C.3    21  TRP21       0.0612
     36  CG        -6.5090    2.9660   -6.0890 C.ar   21  TRP21       0.0007
     37  CD1       -7.0550    3.4090   -7.2190 C.ar   21  TRP21       0.0946
     38  NE1       -7.1560    2.4190   -8.1260 N.ar   21  TRP21      -0.2442
     39  CE2       -6.6880    1.2600   -7.6470 C.ar   21  TRP21       0.0810
     40  CZ2       -6.5320   -0.1050   -8.0600 C.ar   21  TRP21       0.0191
     41  CH2       -5.9630   -1.0770   -7.2340 C.ar   21  TRP21       0.0015
     42  CZ3       -5.4330   -0.7150   -5.9030 C.ar   21  TRP21       0.0001
     43  CE3       -5.5290    0.6400   -5.5430 C.ar   21  TRP21       0.0012
     44  CD2       -6.2440    1.5830   -6.3190 C.ar   21  TRP21       0.0152
     45  C         -4.7460    5.5030   -5.9410 C.2    21  TRP21       0.3845
     46  O         -5.6740    6.3580   -6.0770 O.co2  21  TRP21      -0.2437
     47  OXT       -3.7150    5.4030   -6.6310 O.co2  21  TRP21      -0.2437
@<TRIPOS>BOND
     1    38    39   ar
     2    38    37   ar
     3    40    39   ar
     4    40    41   ar
     5    39    44   ar
     6    41    42   ar
     7    37    36   ar
     8    47    45   ar
     9    44    36   ar
    10    44    43   ar
    11    36    35    1
    12    46    45   ar
    13    45    34    1
    14    42    43   ar
    15    35    34    1
    16    34    33    1
    17    33    31   am
    18     5     4    1
    19     8     7    2
    20    32    31    2
    21    31    26    1
    22     7     2    1
    23     7     9   am
    24     2     1    1
    25     2     3    1
    26     4     3    1
    27     4     6    1
    28    26    27    1
    29    26    25    1
    30    27    29    1
    31    27    28    1
    32     9    10    1
    33    30    29    1
    34    10    15    1
    35    10    11    1
    36    16    15    2
    37    25    23   am
    38    15    17   am
    39    13    12   ar
    40    11    12    1
    41    23    24    2
    42    23    18    1
    43    12    14   ar
    44    17    18    1
    45    18    19    1
    46    19    20    1
    47    19    21    1
    48    21    22    1
@<TRIPOS>MOLECULE
16219006
 44 47 0 0 0
SMALL
GASTEIGER

@<TRIPOS>ATOM
      1 O          -9.2707    3.5946    2.9620 O.2     1  PRO11      -0.2738
      2 O          -7.5522   -0.3119    1.8458 O.2     5  ASP55      -0.2735
      3 O          -5.3680    1.9196    0.9144 O.2     2  VAL22      -0.2738
      4 O         -10.0596    0.5663   -2.3646 O.2     4  TRP44      -0.2738
      5 O          -7.8825    4.0427   -1.6607 O.2     3  LEU33      -0.2738
      6 OD1        -8.9326   -3.8292   -1.4379 O.co2   5  ASP55      -0.5497
      7 OD2        -7.6031   -2.4097   -2.6455 O.co2   5  ASP55      -0.5497
      8 N          -9.6292    0.5423    1.6173 N.am    1  PRO11      -0.2884
      9 N          -7.4071    2.2692    2.8522 N.am    2  VAL22      -0.3022
     10 N          -8.1441    0.2032   -1.1489 N.am    5  ASP55      -0.3021
     11 N          -5.8549    4.0586    0.2668 N.am    3  LEU33      -0.3025
     12 N          -6.8312    2.1786   -2.4911 N.am    4  TRP44      -0.3022
     13 NE1        -5.8951    3.1197   -6.6779 N.ar    4  TRP44      -0.3604
     14 CA         -9.6018    1.1647    2.9424 C.3     1  PRO11       0.1023
     15 CB        -11.0767    1.4141    3.2595 C.3     1  PRO11      -0.0243
     16 CG        -11.7015    1.6345    1.8862 C.3     1  PRO11      -0.0350
     17 CD        -10.9372    0.6668    0.9949 C.3     1  PRO11       0.0156
     18 C          -8.7715    2.4717    2.9152 C.2     1  PRO11       0.2342
     19 C          -8.5814   -0.2326    1.1626 C.2     5  ASP55       0.2369
     20 CA         -6.4811    3.3532    2.5445 C.3     2  VAL22       0.1017
     21 CA         -8.6714   -0.8334   -0.2609 C.3     5  ASP55       0.1047
     22 CB         -5.4434    3.5694    3.6671 C.3     2  VAL22      -0.0197
     23 CA         -5.5397    3.7537   -1.1240 C.3     3  LEU33       0.0996
     24 C          -5.8458    3.0211    1.1801 C.2     2  VAL22       0.2342
     25 CB         -7.8133   -2.0909   -0.3260 C.3     5  ASP55       0.0138
     26 CA         -8.0291    1.6362   -3.1491 C.3     4  TRP44       0.1034
     27 CB         -4.9673    4.9682   -1.8620 C.3     3  LEU33      -0.0236
     28 CG         -3.6522    5.5145   -1.2717 C.3     3  LEU33      -0.0446
     29 C          -8.8633    0.7774   -2.1730 C.2     4  TRP44       0.2343
     30 CB         -7.6546    0.7954   -4.3795 C.3     4  TRP44       0.0013
     31 C          -6.8729    3.3495   -1.7770 C.2     3  LEU33       0.2340
     32 CG1        -4.5552    2.3526    3.9421 C.3     2  VAL22      -0.0605
     33 CG2        -4.5703    4.7983    3.3930 C.3     2  VAL22      -0.0605
     34 CG         -6.8772    1.5338   -5.4469 C.ar    4  TRP44      -0.0201
     35 CG         -8.1599   -2.8420   -1.5973 C.2     5  ASP55       0.0440
     36 CD1        -3.1896    6.7273   -2.0830 C.3     3  LEU33      -0.0626
     37 CD2        -2.5425    4.4630   -1.2338 C.3     3  LEU33      -0.0626
     38 CD2        -6.1814    0.9179   -6.5409 C.ar    4  TRP44       0.0029
     39 CD1        -6.6909    2.8977   -5.5877 C.ar    4  TRP44       0.0060
     40 CE2        -5.5738    1.9302   -7.2845 C.ar    4  TRP44       0.0467
     41 CE3        -6.0135   -0.4169   -6.9635 C.ar    4  TRP44      -0.0523
     42 CZ2        -4.8009    1.6771   -8.4245 C.ar    4  TRP44      -0.0378
     43 CZ3        -5.2528   -0.6878   -8.1072 C.ar    4  TRP44      -0.0611
     44 CH2        -4.6540    0.3456   -8.8241 C.ar    4  TRP44      -0.0598
@<TRIPOS>BOND
     1     1    18    2
     2     2    19    2
     3     3    24    2
     4     4    29    2
     5     5    31    2
     6     6    35   ar
     7     7    35   ar
     8     8    14    1
     9     8    17    1
    10     8    19   am
    11     9    18   am
    12     9    20    1
    13    10    21    1
    14    10    29   am
    15    11    23    1
    16    11    24   am
    17    12    26    1
    18    12    31   am
    19    13    39   ar
    20    13    40   ar
    21    14    15    1
    22    14    18    1
    23    15    16    1
    24    16    17    1
    25    19    21    1
    26    20    22    1
    27    20    24    1
    28    21    25    1
    29    22    32    1
    30    22    33    1
    31    23    27    1
    32    23    31    1
    33    25    35    1
    34    26    29    1
    35    26    30    1
    36    27    28    1
    37    28    36    1
    38    28    37    1
    39    30    34    1
    40    34    38   ar
    41    34    39   ar
    42    38    40   ar
    43    38    41   ar
    44    40    42   ar
    45    41    43   ar
    46    42    44   ar
    47    43    44   ar
