@<TRIPOS>MOLECULE
../1EDN/XRAY_17-21.pdb
 47 48 0 0 0
SMALL
GASTEIGER

@<TRIPOS>ATOM
      1  N          6.4500  -19.7300   -2.8460 N.3    17  LEU17      -0.1231
      2  CA         5.2640  -20.1680   -2.1160 C.3    17  LEU17       0.1693
      3  C          4.7010  -18.8060   -1.6720 C.2    17  LEU17       0.2592
      4  O          4.3760  -17.9800   -2.5270 O.2    17  LEU17      -0.2718
      5  CB         5.6570  -21.0170   -0.8850 C.3    17  LEU17       0.0284
      6  CG         5.4050  -22.5400   -0.8470 C.3    17  LEU17       0.0019
      7  CD1        6.1110  -23.2140    0.3150 C.3    17  LEU17       0.0001
      8  CD2        3.9240  -22.7940   -0.7690 C.3    17  LEU17       0.0001
      9  N          4.7270  -18.4910   -0.3800 N.am   18  ASP18      -0.1962
     10  CA         4.1720  -17.2010    0.0630 C.3    18  ASP18       0.1783
     11  C          4.7750  -15.8130   -0.3500 C.2    18  ASP18       0.2620
     12  O          4.1570  -14.7710   -0.0750 O.2    18  ASP18      -0.2715
     13  CB         3.8720  -17.2370    1.5730 C.3    18  ASP18       0.0728
     14  CG         2.4440  -17.7210    1.8880 C.2    18  ASP18       0.0526
     15  OD1        1.8320  -18.4410    1.0660 O.co2  18  ASP18      -0.5491
     16  OD2        1.9260  -17.3730    2.9700 O.co2  18  ASP18      -0.5491
     17  N          5.9570  -15.7420   -0.9630 N.am   19  ILE19      -0.1963
     18  CA         6.4450  -14.4030   -1.3510 C.3    19  ILE19       0.1727
     19  C          5.5760  -13.9960   -2.5290 C.2    19  ILE19       0.2616
     20  O          4.8370  -13.0080   -2.4770 O.2    19  ILE19      -0.2715
     21  CB         7.9140  -14.3690   -1.8400 C.3    19  ILE19       0.0290
     22  CG1        8.8760  -14.8240   -0.7490 C.3    19  ILE19       0.0022
     23  CG2        8.2810  -12.9320   -2.2380 C.3    19  ILE19       0.0023
     24  CD1        9.3280  -13.7050    0.1860 C.3    19  ILE19       0.0001
     25  N          5.7170  -14.7750   -3.5990 N.am   20  ILE20      -0.1963
     26  CA         4.9770  -14.6140   -4.8450 C.3    20  ILE20       0.1727
     27  C          4.7560  -16.0550   -5.2510 C.2    20  ILE20       0.2615
     28  O          5.5820  -16.9240   -4.9410 O.2    20  ILE20      -0.2715
     29  CB         5.8140  -13.8870   -5.9550 C.3    20  ILE20       0.0290
     30  CG1        5.9530  -12.3980   -5.6400 C.3    20  ILE20       0.0022
     31  CG2        5.1640  -14.0490   -7.3150 C.3    20  ILE20       0.0023
     32  CD1        6.8340  -11.6390   -6.6010 C.3    20  ILE20       0.0001
     33  N          3.6520  -16.3070   -5.9350 N.am   21  TRP21      -0.1988
     34  CA         3.3300  -17.6370   -6.4010 C.3    21  TRP21       0.1456
     35  C          2.5650  -17.6270   -7.7180 C.2    21  TRP21       0.1166
     36  O          1.8980  -18.6320   -8.0750 O.co2  21  TRP21      -0.3065
     37  CB         2.6690  -18.5180   -5.3120 C.3    21  TRP21       0.0562
     38  CG         1.5690  -17.9980   -4.3600 C.ar   21  TRP21       0.0005
     39  CD1        0.7990  -18.7930   -3.5490 C.ar   21  TRP21       0.0946
     40  CD2        1.2480  -16.6350   -3.9890 C.ar   21  TRP21       0.0152
     41  CE2        0.3020  -16.7070   -2.9250 C.ar   21  TRP21       0.0810
     42  CE3        1.6680  -15.3700   -4.4360 C.ar   21  TRP21       0.0012
     43  NE1        0.0520  -18.0350   -2.6840 N.ar   21  TRP21      -0.2442
     44  CZ2       -0.2230  -15.5590   -2.2950 C.ar   21  TRP21       0.0191
     45  CZ3        1.1420  -14.2140   -3.8060 C.ar   21  TRP21       0.0001
     46  CH2        0.2070  -14.3240   -2.7450 C.ar   21  TRP21       0.0015
     47  OXT        2.7400  -16.6140   -8.4280 O.co2  21  TRP21      -0.8460
@<TRIPOS>BOND
     1    47    35   ar
     2    36    35   ar
     3    35    34    1
     4    31    29    1
     5    32    30    1
     6    34    33    1
     7    34    37    1
     8    29    30    1
     9    29    26    1
    10    33    27   am
    11    37    38    1
    12    27    28    2
    13    27    26    1
    14    26    25    1
    15    42    40   ar
    16    42    45   ar
    17    38    40   ar
    18    38    39   ar
    19    40    41   ar
    20    45    46   ar
    21    25    19   am
    22    39    43   ar
    23    41    43   ar
    24    41    44   ar
    25     1     2    1
    26    46    44   ar
    27    19    20    2
    28    19    18    1
    29     4     3    2
    30    23    21    1
    31     2     3    1
    32     2     5    1
    33    21    18    1
    34    21    22    1
    35     3     9   am
    36    18    17    1
    37    17    11   am
    38     5     6    1
    39     6     8    1
    40     6     7    1
    41    22    24    1
    42     9    10    1
    43    11    12    2
    44    11    10    1
    45    10    13    1
    46    15    14   ar
    47    13    14    1
    48    14    16   ar
@<TRIPOS>MOLECULE
16219006
 44 47 0 0 0
SMALL
GASTEIGER

@<TRIPOS>ATOM
      1 O           9.3571  -16.7631   -4.7341 O.2     1  PRO11      -0.2738
      2 O           5.0910  -17.2722   -4.3270 O.2     5  ASP55      -0.2735
      3 O           5.5924  -13.9079   -3.5712 O.2     2  VAL22      -0.2738
      4 O           4.8273  -17.1707   -9.1787 O.2     4  TRP44      -0.2738
      5 O           7.1040  -14.1447   -7.7128 O.2     3  LEU33      -0.2738
      6 OD1         3.9144  -20.4309   -5.5508 O.co2   5  ASP55      -0.5497
      7 OD2         1.7860  -20.0929   -4.8046 O.co2   5  ASP55      -0.5497
      8 N           6.5741  -18.3476   -5.6634 N.am    1  PRO11      -0.2884
      9 N           7.4639  -16.2555   -3.5528 N.am    2  VAL22      -0.3022
     10 N           4.1731  -16.6062   -7.0500 N.am    5  ASP55      -0.3021
     11 N           7.2142  -13.3203   -5.0697 N.am    3  LEU33      -0.3025
     12 N           4.8296  -13.9589   -7.5306 N.am    4  TRP44      -0.3022
     13 NE1         2.2793  -10.9864   -9.8499 N.ar    4  TRP44      -0.3604
     14 CA          7.5850  -18.4585   -4.6121 C.3     1  PRO11       0.1023
     15 CB          8.5798  -19.4922   -5.1474 C.3     1  PRO11      -0.0243
     16 CG          8.4300  -19.3838   -6.6598 C.3     1  PRO11      -0.0350
     17 CD          6.9419  -19.1291   -6.8314 C.3     1  PRO11       0.0156
     18 C           8.2442  -17.0895   -4.3258 C.2     1  PRO11       0.2342
     19 C           5.3006  -17.8980   -5.3770 C.2     5  ASP55       0.2369
     20 CA          7.8207  -14.8741   -3.2649 C.3     2  VAL22       0.1017
     21 CA          4.2234  -17.9678   -6.4878 C.3     5  ASP55       0.1047
     22 CB          7.9769  -14.6326   -1.7476 C.3     2  VAL22      -0.0197
     23 CA          6.2594  -12.6919   -5.9730 C.3     3  LEU33       0.0996
     24 C           6.7608  -13.9829   -3.9446 C.2     2  VAL22       0.2342
     25 CB          2.8668  -18.3279   -5.9065 C.3     5  ASP55       0.0138
     26 CA          4.5659  -14.8178   -8.6915 C.3     4  TRP44       0.1034
     27 CB          6.7532  -11.3389   -6.5040 C.3     3  LEU33      -0.0236
     28 CG          6.6384  -10.1757   -5.4953 C.3     3  LEU33      -0.0446
     29 C           4.6026  -16.3138   -8.3255 C.2     4  TRP44       0.2343
     30 CB          3.2001  -14.5179   -9.3292 C.3     4  TRP44       0.0013
     31 C           6.1188  -13.6702   -7.1512 C.2     3  LEU33       0.2340
     32 CG1         6.7312  -14.9451   -0.9141 C.3     2  VAL22      -0.0605
     33 CG2         8.4526  -13.2056   -1.4611 C.3     2  VAL22      -0.0605
     34 CG          3.0298  -13.0837   -9.7435 C.ar    4  TRP44      -0.0201
     35 CG          2.8653  -19.7537   -5.3669 C.2     5  ASP55       0.0440
     36 CD1         7.6129  -10.2996   -4.3239 C.3     3  LEU33      -0.0626
     37 CD2         6.8809   -8.8443   -6.2128 C.3     3  LEU33      -0.0626
     38 CD2         3.7602  -12.3820  -10.7578 C.ar    4  TRP44       0.0029
     39 CD1         2.1225  -12.1866   -9.2123 C.ar    4  TRP44       0.0060
     40 CE2         3.2770  -11.0732  -10.7915 C.ar    4  TRP44       0.0467
     41 CE3         4.7936  -12.7365  -11.6499 C.ar    4  TRP44      -0.0523
     42 CZ2         3.7794  -10.1005  -11.6650 C.ar    4  TRP44      -0.0378
     43 CZ3         5.3105  -11.7756  -12.5268 C.ar    4  TRP44      -0.0611
     44 CH2         4.8097  -10.4767  -12.5315 C.ar    4  TRP44      -0.0598
@<TRIPOS>BOND
     1     1    18    2
     2     2    19    2
     3     3    24    2
     4     4    29    2
     5     5    31    2
     6     6    35   ar
     7     7    35   ar
     8     8    14    1
     9     8    17    1
    10     8    19   am
    11     9    18   am
    12     9    20    1
    13    10    21    1
    14    10    29   am
    15    11    23    1
    16    11    24   am
    17    12    26    1
    18    12    31   am
    19    13    39   ar
    20    13    40   ar
    21    14    15    1
    22    14    18    1
    23    15    16    1
    24    16    17    1
    25    19    21    1
    26    20    22    1
    27    20    24    1
    28    21    25    1
    29    22    32    1
    30    22    33    1
    31    23    27    1
    32    23    31    1
    33    25    35    1
    34    26    29    1
    35    26    30    1
    36    27    28    1
    37    28    36    1
    38    28    37    1
    39    30    34    1
    40    34    38   ar
    41    34    39   ar
    42    38    40   ar
    43    38    41   ar
    44    40    42   ar
    45    41    43   ar
    46    42    44   ar
    47    43    44   ar
