@<TRIPOS>MOLECULE
16219006
 44 47 0 0 0
SMALL
GASTEIGER

@<TRIPOS>ATOM
      1 O           4.3478   -1.0415    2.2428 O.2     1  PRO11      -0.2738
      2 O           3.1876    1.0799   -1.3272 O.2     5  ASP55      -0.2735
      3 O           1.8919   -1.8621   -1.7936 O.2     2  VAL22      -0.2738
      4 O          -0.2022    2.6488    1.5153 O.2     4  TRP44      -0.2738
      5 O          -0.7188   -1.2489    1.7796 O.2     3  LEU33      -0.2738
      6 OD1         3.5684    4.6940   -0.9928 O.co2   5  ASP55      -0.5497
      7 OD2         3.1025    4.9905   -3.2050 O.co2   5  ASP55      -0.5497
      8 N           3.5023    1.8158    0.7942 N.am    1  PRO11      -0.2884
      9 N           4.0947   -1.1067   -0.0320 N.am    2  VAL22      -0.3022
     10 N           0.4884    1.9891   -0.5699 N.am    5  ASP55      -0.3021
     11 N           1.1098   -2.7706    0.1471 N.am    3  LEU33      -0.3025
     12 N          -1.2057   -0.2635   -0.2394 N.am    4  TRP44      -0.3022
     13 NE1        -3.4986    5.0898    0.6401 N.ar    4  TRP44      -0.3604
     14 CA          4.7218    1.0306    0.9815 C.3     1  PRO11       0.1023
     15 CB          5.3782    1.6355    2.2251 C.3     1  PRO11      -0.0243
     16 CG          4.2059    2.2288    2.9965 C.3     1  PRO11      -0.0350
     17 CD          3.3046    2.7496    1.8897 C.3     1  PRO11       0.0156
     18 C           4.3789   -0.4659    1.1568 C.2     1  PRO11       0.2342
     19 C           2.8909    1.8938   -0.4402 C.2     5  ASP55       0.2369
     20 CA          3.5410   -2.4505   -0.0836 C.3     2  VAL22       0.1017
     21 CA          1.6864    2.8483   -0.6151 C.3     5  ASP55       0.1047
     22 CB          4.4637   -3.4187   -0.8565 C.3     2  VAL22      -0.0197
     23 CA         -0.2801   -2.5410   -0.2258 C.3     3  LEU33       0.0996
     24 C           2.1229   -2.3312   -0.6806 C.2     2  VAL22       0.2342
     25 CB          1.7395    3.5396   -1.9686 C.3     5  ASP55       0.0138
     26 CA         -1.5923    1.0327    0.3489 C.3     4  TRP44       0.1034
     27 CB         -1.1583   -3.7467    0.1268 C.3     3  LEU33      -0.0236
     28 CG         -0.7771   -5.0478   -0.6112 C.3     3  LEU33      -0.0446
     29 C          -0.3427    1.9262    0.5299 C.2     4  TRP44       0.2343
     30 CB         -2.6249    1.7202   -0.5637 C.3     4  TRP44       0.0013
     31 C          -0.7574   -1.2996    0.5525 C.2     3  LEU33       0.2340
     32 CG1         4.7332   -3.0167   -2.3093 C.3     2  VAL22      -0.0605
     33 CG2         3.9331   -4.8543   -0.8017 C.3     2  VAL22      -0.0605
     34 CG         -3.2404    2.9676   -0.0032 C.ar    4  TRP44      -0.0201
     35 CG          2.9240    4.4923   -2.0578 C.2     5  ASP55       0.0440
     36 CD1        -1.7146   -6.1781   -0.1800 C.3     3  LEU33      -0.0626
     37 CD2        -0.8161   -4.8987   -2.1334 C.3     3  LEU33      -0.0626
     38 CD2        -4.5637    3.1351    0.5247 C.ar    4  TRP44       0.0029
     39 CD1        -2.6319    4.2063    0.0616 C.ar    4  TRP44       0.0060
     40 CE2        -4.6956    4.4710    0.9106 C.ar    4  TRP44       0.0467
     41 CE3        -5.6697    2.2778    0.7053 C.ar    4  TRP44      -0.0523
     42 CZ2        -5.8713    4.9917    1.4650 C.ar    4  TRP44      -0.0378
     43 CZ3        -6.8560    2.7836    1.2523 C.ar    4  TRP44      -0.0611
     44 CH2        -6.9524    4.1215    1.6261 C.ar    4  TRP44      -0.0598
@<TRIPOS>BOND
     1     1    18    2
     2     2    19    2
     3     3    24    2
     4     4    29    2
     5     5    31    2
     6     6    35   ar
     7     7    35   ar
     8     8    14    1
     9     8    17    1
    10     8    19   am
    11     9    18   am
    12     9    20    1
    13    10    21    1
    14    10    29   am
    15    11    23    1
    16    11    24   am
    17    12    26    1
    18    12    31   am
    19    13    39   ar
    20    13    40   ar
    21    14    15    1
    22    14    18    1
    23    15    16    1
    24    16    17    1
    25    19    21    1
    26    20    22    1
    27    20    24    1
    28    21    25    1
    29    22    32    1
    30    22    33    1
    31    23    27    1
    32    23    31    1
    33    25    35    1
    34    26    29    1
    35    26    30    1
    36    27    28    1
    37    28    36    1
    38    28    37    1
    39    30    34    1
    40    34    38   ar
    41    34    39   ar
    42    38    40   ar
    43    38    41   ar
    44    40    42   ar
    45    41    43   ar
    46    42    44   ar
    47    43    44   ar
@<TRIPOS>MOLECULE
11672244
 53 58 0 0 0
SMALL
GASTEIGER

@<TRIPOS>ATOM
      1 O          -0.7893   -0.2302    0.0730 O.3     1  LIG11      -0.4607
      2 O           4.0347    2.7172    4.4605 O.2     1  LIG11      -0.2968
      3 O           1.4263   -6.1875   -1.4498 O.co2   1  LIG11      -0.5492
      4 O           0.7882   -5.5617   -3.5340 O.co2   1  LIG11      -0.5492
      5 O          -2.2000   -0.4116   -1.7449 O.2     1  LIG11      -0.2456
      6 O          -4.6519    6.2549    0.6392 O.3     1  LIG11      -0.5067
      7 O          -4.0450   -0.0710    2.0069 O.2     1  LIG11      -0.2705
      8 O          -7.7795   -3.4480    2.4734 O.co2   1  LIG11      -0.5452
      9 O          -8.3899   -3.4641    0.2714 O.co2   1  LIG11      -0.5452
     10 N          -6.0438    0.9074    1.2990 N.am    1  LIG11      -0.2815
     11 C           1.9862   -1.7598    0.0744 C.3     1  LIG11      -0.0160
     12 C           2.1427   -1.7503    1.6397 C.3     1  LIG11      -0.0256
     13 C           0.5263   -2.4210   -0.2817 C.3     1  LIG11       0.0318
     14 C           3.2968   -0.8385    2.2642 C.3     1  LIG11      -0.0243
     15 C           3.1845    0.5820    1.6080 C.3     1  LIG11      -0.0235
     16 C           2.1498   -0.3297   -0.5078 C.3     1  LIG11      -0.0461
     17 C           0.3953   -3.8068    0.4133 C.2     1  LIG11      -0.0596
     18 C          -0.6842   -4.7549   -0.1495 C.3     1  LIG11      -0.0080
     19 C           3.3129    0.4738    0.0747 C.3     1  LIG11      -0.0483
     20 C           0.3869   -2.5546   -1.8293 C.3     1  LIG11      -0.0392
     21 C           2.1055   -3.1970    2.1865 C.3     1  LIG11      -0.0306
     22 C          -0.6081   -4.9081   -1.6860 C.3     1  LIG11       0.0167
     23 C           4.0469    1.7241    2.2457 C.3     1  LIG11       0.0267
     24 C           3.0046   -0.6607    3.7827 C.3     1  LIG11      -0.0404
     25 C          -0.7169   -3.4973   -2.3146 C.3     1  LIG11      -0.0408
     26 C           3.1217   -2.6198   -0.5781 C.3     1  LIG11      -0.0584
     27 C           1.1188   -4.1008    1.5127 C.2     1  LIG11      -0.0835
     28 C          -0.7249   -1.6441    0.2847 C.3     1  LIG11       0.1025
     29 C           4.7063   -1.4635    2.1237 C.3     1  LIG11      -0.0590
     30 C          -0.8752   -6.1048    0.5875 C.3     1  LIG11      -0.0405
     31 C          -1.8092   -5.7471   -2.1947 C.3     1  LIG11      -0.0412
     32 C           3.9008    0.3518    4.4797 C.3     1  LIG11       0.0069
     33 C          -2.0625   -6.9443    0.0596 C.3     1  LIG11      -0.0343
     34 C           3.9399    1.6892    3.7810 C.2     1  LIG11       0.1392
     35 C          -1.9668   -7.0858   -1.4711 C.3     1  LIG11      -0.0470
     36 C           5.5357    1.6986    1.8687 C.3     1  LIG11      -0.0528
     37 C           3.4847    3.0975    1.7888 C.3     1  LIG11      -0.0528
     38 C           0.6590   -5.6153   -2.2741 C.2     1  LIG11       0.0485
     39 C          -2.0041   -8.3462    0.6973 C.3     1  LIG11      -0.0598
     40 C          -3.4072   -6.3055    0.4677 C.3     1  LIG11      -0.0598
     41 C          -1.7699    0.1736   -0.7659 C.2     1  LIG11       0.3320
     42 C          -2.3517    1.4043   -0.1945 C.2     1  LIG11       0.0231
     43 C          -3.6686    1.5888   -0.3680 C.2     1  LIG11      -0.0460
     44 C          -4.4540    2.5901    0.3652 C.ar    1  LIG11      -0.0001
     45 C          -5.6253    2.2359    1.0711 C.ar    1  LIG11       0.0411
     46 C          -4.1214    3.9479    0.2231 C.ar    1  LIG11      -0.0113
     47 C          -6.4701    3.2444    1.5580 C.ar    1  LIG11      -0.0364
     48 C          -4.9504    4.9289    0.7614 C.ar    1  LIG11       0.1175
     49 C          -6.1244    4.5885    1.4182 C.ar    1  LIG11      -0.0184
     50 C          -5.2260   -0.1400    1.6855 C.2     1  LIG11       0.2411
     51 C          -5.9936   -1.3902    1.9019 C.2     1  LIG11       0.0021
     52 C          -6.8721   -1.8427    0.9936 C.2     1  LIG11      -0.0344
     53 C          -7.7441   -3.0584    1.2724 C.2     1  LIG11       0.0647
@<TRIPOS>BOND
     1     1    41    1
     2     1    28    1
     3     2    34    2
     4     3    38   ar
     5     4    38   ar
     6     5    41    2
     7     6    48    1
     8     7    50    2
     9     8    53   ar
    10     9    53   ar
    11    10    45    1
    12    10    50   am
    13    11    16    1
    14    11    12    1
    15    11    26    1
    16    11    13    1
    17    12    14    1
    18    13    20    1
    19    13    17    1
    20    13    28    1
    21    14    15    1
    22    14    24    1
    23    14    29    1
    24    15    19    1
    25    15    23    1
    26    16    19    1
    27    17    18    1
    28    17    27    2
    29    18    30    1
    30    18    22    1
    31    20    25    1
    32    21    27    1
    33    21    12    1
    34    22    31    1
    35    22    25    1
    36    22    38    1
    37    23    34    1
    38    23    37    1
    39    23    36    1
    40    24    32    1
    41    30    33    1
    42    31    35    1
    43    32    34    1
    44    33    35    1
    45    33    40    1
    46    33    39    1
    47    41    42    1
    48    42    43    2
    49    43    44    1
    50    44    46   ar
    51    44    45   ar
    52    45    47   ar
    53    46    48   ar
    54    47    49   ar
    55    48    49   ar
    56    50    51    1
    57    51    52    2
    58    52    53    1
