@<TRIPOS>MOLECULE
16219006
 44 47 0 0 0
SMALL
GASTEIGER

@<TRIPOS>ATOM
      1 O           4.2437   -1.0901    2.3041 O.2     1  PRO11      -0.2738
      2 O           3.1957    1.0014   -1.3012 O.2     5  ASP55      -0.2735
      3 O           2.1036   -2.2991   -1.8811 O.2     2  VAL22      -0.2738
      4 O          -0.5330    3.0215    1.2040 O.2     4  TRP44      -0.2738
      5 O          -0.4964   -1.0908    1.7574 O.2     3  LEU33      -0.2738
      6 OD1         3.6407    4.5518   -1.0967 O.co2   5  ASP55      -0.5497
      7 OD2         2.9566    5.0066   -3.2262 O.co2   5  ASP55      -0.5497
      8 N           3.4802    1.7492    0.8209 N.am    1  PRO11      -0.2884
      9 N           4.1427   -1.2015    0.0202 N.am    2  VAL22      -0.3022
     10 N           0.5140    1.9237   -0.5173 N.am    5  ASP55      -0.3021
     11 N           1.2292   -2.6783    0.1988 N.am    3  LEU33      -0.3025
     12 N          -1.2168   -0.2325   -0.2451 N.am    4  TRP44      -0.3022
     13 NE1        -1.7022    2.9387   -3.7347 N.ar    4  TRP44      -0.3604
     14 CA          4.6919    0.9613    1.0320 C.3     1  PRO11       0.1023
     15 CB          5.3286    1.5730    2.2826 C.3     1  PRO11      -0.0243
     16 CG          4.1455    2.1730    3.0320 C.3     1  PRO11      -0.0350
     17 CD          3.2602    2.6857    1.9084 C.3     1  PRO11       0.0156
     18 C           4.3452   -0.5350    1.2115 C.2     1  PRO11       0.2342
     19 C           2.8955    1.8277   -0.4276 C.2     5  ASP55       0.2369
     20 CA          3.6708   -2.5797   -0.0383 C.3     2  VAL22       0.1017
     21 CA          1.6977    2.7909   -0.6126 C.3     5  ASP55       0.1047
     22 CB          4.6204   -3.4717   -0.8693 C.3     2  VAL22      -0.0197
     23 CA         -0.1402   -2.4342   -0.2296 C.3     3  LEU33       0.0996
     24 C           2.2750   -2.5175   -0.6834 C.2     2  VAL22       0.2342
     25 CB          1.7279    3.4560   -1.9772 C.3     5  ASP55       0.0138
     26 CA         -1.6403    1.0550    0.3190 C.3     4  TRP44       0.1034
     27 CB         -1.0582   -3.6211    0.0896 C.3     3  LEU33      -0.0236
     28 CG         -0.7045   -4.9259   -0.6544 C.3     3  LEU33      -0.0446
     29 C          -0.4792    2.0731    0.4217 C.2     4  TRP44       0.2343
     30 CB         -2.8183    1.6598   -0.4696 C.3     4  TRP44       0.0013
     31 C          -0.6228   -1.1941    0.5386 C.2     3  LEU33       0.2340
     32 CG1         4.0798   -4.9043   -0.9739 C.3     2  VAL22      -0.0605
     33 CG2         6.0238   -3.5129   -0.2539 C.3     2  VAL22      -0.0605
     34 CG         -2.5057    1.9340   -1.9126 C.ar    4  TRP44      -0.0201
     35 CG          2.8957    4.4230   -2.1061 C.2     5  ASP55       0.0440
     36 CD1        -1.6451   -6.0473   -0.2042 C.3     3  LEU33      -0.0626
     37 CD2        -0.7783   -4.7752   -2.1747 C.3     3  LEU33      -0.0626
     38 CD2        -2.6018    1.0272   -3.0175 C.ar    4  TRP44       0.0029
     39 CD1        -2.0023    3.1185   -2.4125 C.ar    4  TRP44       0.0060
     40 CE2        -2.0673    1.6735   -4.1325 C.ar    4  TRP44       0.0467
     41 CE3        -3.0483   -0.3033   -3.1629 C.ar    4  TRP44      -0.0523
     42 CZ2        -1.9427    1.0536   -5.3807 C.ar    4  TRP44      -0.0378
     43 CZ3        -2.9314   -0.9383   -4.4049 C.ar    4  TRP44      -0.0611
     44 CH2        -2.3833   -0.2676   -5.4955 C.ar    4  TRP44      -0.0598
@<TRIPOS>BOND
     1     1    18    2
     2     2    19    2
     3     3    24    2
     4     4    29    2
     5     5    31    2
     6     6    35   ar
     7     7    35   ar
     8     8    14    1
     9     8    17    1
    10     8    19   am
    11     9    18   am
    12     9    20    1
    13    10    21    1
    14    10    29   am
    15    11    23    1
    16    11    24   am
    17    12    26    1
    18    12    31   am
    19    13    39   ar
    20    13    40   ar
    21    14    15    1
    22    14    18    1
    23    15    16    1
    24    16    17    1
    25    19    21    1
    26    20    22    1
    27    20    24    1
    28    21    25    1
    29    22    32    1
    30    22    33    1
    31    23    27    1
    32    23    31    1
    33    25    35    1
    34    26    29    1
    35    26    30    1
    36    27    28    1
    37    28    36    1
    38    28    37    1
    39    30    34    1
    40    34    38   ar
    41    34    39   ar
    42    38    40   ar
    43    38    41   ar
    44    40    42   ar
    45    41    43   ar
    46    42    44   ar
    47    43    44   ar
@<TRIPOS>MOLECULE
9911482
 30 32 0 0 0
SMALL
GASTEIGER

@<TRIPOS>ATOM
      1 S          -4.8061   -4.1364    0.5372 S.O2    1  LIG11       0.0758
      2 S          -7.6022   -2.3132   -2.1241 S.2     1  LIG11      -0.0902
      3 O          -4.8039   -6.5385   -2.1639 O.2     1  LIG11      -0.3377
      4 O          -3.6933   -3.2653    0.2427 O.2     1  LIG11      -0.1499
      5 O          -5.3684   -4.1851    1.8747 O.2     1  LIG11      -0.1499
      6 O          -4.0508   -3.0794   -2.7251 O.2     1  LIG11      -0.2692
      7 O          -4.5492    1.0179   -0.6348 O.2     1  LIG11      -0.2923
      8 N          -4.7989   -0.9224   -2.4205 N.am    1  LIG11      -0.2802
      9 N          -4.4915   -5.7447    0.1171 N.pl3   1  LIG11      -0.1831
     10 N          -4.1216   -6.5573   -3.3641 N.ar    1  LIG11      -0.0810
     11 C          -3.7308   -0.2756   -3.0901 C.ar    1  LIG11       0.0471
     12 C          -6.1360   -3.5449   -0.4122 C.ar    1  LIG11       0.1277
     13 C          -3.3800   -0.5881   -4.4188 C.ar    1  LIG11      -0.0283
     14 C          -3.0256    0.7405   -2.4094 C.ar    1  LIG11       0.0388
     15 C          -6.0455   -2.7425   -1.5335 C.ar    1  LIG11       0.1007
     16 C          -1.5839    1.0783   -4.3357 C.ar    1  LIG11      -0.0494
     17 C          -2.2924    0.0811   -5.0140 C.ar    1  LIG11      -0.0541
     18 C          -1.9590    1.4067   -3.0299 C.ar    1  LIG11      -0.0466
     19 C          -4.8833   -2.2971   -2.2794 C.2     1  LIG11       0.2568
     20 C          -4.0451   -5.9306   -1.2145 C.ar    1  LIG11       0.2399
     21 C          -7.4981   -3.8280   -0.0624 C.ar    1  LIG11      -0.0273
     22 C          -2.8036   -5.6400   -1.7366 C.ar    1  LIG11       0.0350
     23 C          -4.1228   -1.5778   -5.2777 C.3     1  LIG11      -0.0379
     24 C          -3.3752    1.0726   -0.9989 C.2     1  LIG11       0.1619
     25 C          -2.9366   -5.9883   -3.1101 C.ar    1  LIG11       0.0854
     26 C          -8.3918   -3.2218   -0.9147 C.ar    1  LIG11      -0.0217
     27 C          -0.4335    1.7852   -4.9907 C.3     1  LIG11      -0.0397
     28 C          -1.6109   -5.0710   -1.0691 C.3     1  LIG11      -0.0330
     29 C          -1.9537   -5.7840   -4.1991 C.3     1  LIG11      -0.0188
     30 C          -2.2660    1.4450   -0.0514 C.3     1  LIG11      -0.0013
@<TRIPOS>BOND
     1     1     4    2
     2     1     5    2
     3     1     9    1
     4     1    12    1
     5     2    15   ar
     6     2    26   ar
     7     3    10   ar
     8     3    20   ar
     9     6    19    2
    10     7    24    2
    11     8    11    1
    12     8    19   am
    13     9    20    1
    14    10    25   ar
    15    11    13   ar
    16    11    14   ar
    17    12    15   ar
    18    12    21   ar
    19    13    17   ar
    20    13    23    1
    21    14    18   ar
    22    14    24    1
    23    15    19    1
    24    16    17   ar
    25    16    18   ar
    26    16    27    1
    27    20    22   ar
    28    21    26   ar
    29    22    25   ar
    30    22    28    1
    31    24    30    1
    32    25    29    1
