@<TRIPOS>MOLECULE
16219006
 44 47 0 0 0
SMALL
GASTEIGER

@<TRIPOS>ATOM
      1 O           4.2205   -0.9240    2.2308 O.2     1  PRO11      -0.2738
      2 O           3.3155    1.2417   -1.4082 O.2     5  ASP55      -0.2735
      3 O           2.0088   -1.7500   -1.7327 O.2     2  VAL22      -0.2738
      4 O          -0.3273    2.7090    1.5068 O.2     4  TRP44      -0.2738
      5 O          -0.3236   -1.2528    1.7977 O.2     3  LEU33      -0.2738
      6 OD1         0.6842    5.2183   -3.2226 O.co2   5  ASP55      -0.5497
      7 OD2        -0.6597    4.2020   -1.6883 O.co2   5  ASP55      -0.5497
      8 N           3.4706    1.8985    0.7442 N.am    1  PRO11      -0.2884
      9 N           4.2255   -1.0679   -0.0569 N.am    2  VAL22      -0.3022
     10 N           0.5023    1.8094   -0.4451 N.am    5  ASP55      -0.3021
     11 N           1.2499   -2.8581    0.1158 N.am    3  LEU33      -0.3025
     12 N          -1.1618   -0.3473   -0.1413 N.am    4  TRP44      -0.3022
     13 NE1        -5.3402   -0.8223   -1.2950 N.ar    4  TRP44      -0.3604
     14 CA          4.6896    1.1212    0.9656 C.3     1  PRO11       0.1023
     15 CB          5.2867    1.7273    2.2366 C.3     1  PRO11      -0.0243
     16 CG          4.0682    2.2373    2.9983 C.3     1  PRO11      -0.0350
     17 CD          3.1417    2.7234    1.8944 C.3     1  PRO11       0.0156
     18 C           4.3626   -0.3815    1.1363 C.2     1  PRO11       0.2342
     19 C           2.8736    1.9547   -0.4968 C.2     5  ASP55       0.2369
     20 CA          3.6693   -2.4159   -0.0811 C.3     2  VAL22       0.1017
     21 CA          1.5712    2.7782   -0.6601 C.3     5  ASP55       0.1047
     22 CB          4.5291   -3.4317   -0.8690 C.3     2  VAL22      -0.0197
     23 CA         -0.1369   -2.5667   -0.2290 C.3     3  LEU33       0.0996
     24 C           2.2474   -2.3032   -0.6576 C.2     2  VAL22       0.2342
     25 CB          1.5280    3.3622   -2.0680 C.3     5  ASP55       0.0138
     26 CA         -1.5936    0.9195    0.4690 C.3     4  TRP44       0.1034
     27 CB         -1.0691   -3.7334    0.1063 C.3     3  LEU33      -0.0236
     28 CG         -0.7502   -5.0352   -0.6566 C.3     3  LEU33      -0.0446
     29 C          -0.3968    1.8835    0.5976 C.2     4  TRP44       0.2343
     30 CB         -2.6968    1.5862   -0.3718 C.3     4  TRP44       0.0013
     31 C          -0.5430   -1.3303    0.5906 C.2     3  LEU33       0.2340
     32 CG1         5.8619   -3.6827   -0.1546 C.3     2  VAL22      -0.0605
     33 CG2         4.7980   -3.0423   -2.3258 C.3     2  VAL22      -0.0605
     34 CG         -3.9118    0.7058   -0.5203 C.ar    4  TRP44      -0.0201
     35 CG          0.4111    4.3606   -2.3338 C.2     5  ASP55       0.0440
     36 CD1        -1.7362   -6.1290   -0.2414 C.3     3  LEU33      -0.0626
     37 CD2        -0.7883   -4.8543   -2.1754 C.3     3  LEU33      -0.0626
     38 CD2        -5.0277    0.6203    0.3733 C.ar    4  TRP44       0.0029
     39 CD1        -4.1546   -0.1890   -1.5468 C.ar    4  TRP44       0.0060
     40 CE2        -5.8953   -0.3507   -0.1292 C.ar    4  TRP44       0.0467
     41 CE3        -5.3786    1.2783    1.5696 C.ar    4  TRP44      -0.0523
     42 CZ2        -7.0907   -0.7043    0.5086 C.ar    4  TRP44      -0.0378
     43 CZ3        -6.5750    0.9445    2.2154 C.ar    4  TRP44      -0.0611
     44 CH2        -7.4153   -0.0355    1.6924 C.ar    4  TRP44      -0.0598
@<TRIPOS>BOND
     1     1    18    2
     2     2    19    2
     3     3    24    2
     4     4    29    2
     5     5    31    2
     6     6    35   ar
     7     7    35   ar
     8     8    14    1
     9     8    17    1
    10     8    19   am
    11     9    18   am
    12     9    20    1
    13    10    21    1
    14    10    29   am
    15    11    23    1
    16    11    24   am
    17    12    26    1
    18    12    31   am
    19    13    39   ar
    20    13    40   ar
    21    14    15    1
    22    14    18    1
    23    15    16    1
    24    16    17    1
    25    19    21    1
    26    20    22    1
    27    20    24    1
    28    21    25    1
    29    22    32    1
    30    22    33    1
    31    23    27    1
    32    23    31    1
    33    25    35    1
    34    26    29    1
    35    26    30    1
    36    27    28    1
    37    28    36    1
    38    28    37    1
    39    30    34    1
    40    34    38   ar
    41    34    39   ar
    42    38    40   ar
    43    38    41   ar
    44    40    42   ar
    45    41    43   ar
    46    42    44   ar
    47    43    44   ar
@<TRIPOS>MOLECULE
9843631
 28 31 0 0 0
SMALL
GASTEIGER

@<TRIPOS>ATOM
      1 S          -3.1817   -1.7319    0.8065 S.O2    1  LIG11       0.0752
      2 O          -4.9890   -3.4116   -1.7810 O.2     1  LIG11      -0.3377
      3 O          -1.7987   -2.1370    0.6616 O.2     1  LIG11      -0.1499
      4 O          -3.6359   -1.1509    2.0508 O.2     1  LIG11      -0.1499
      5 O          -9.4328   -0.5475    3.9203 O.2     1  LIG11      -0.4436
      6 N          -4.1768   -3.0807    0.4996 N.pl3   1  LIG11      -0.1831
      7 N          -4.5636   -3.9914   -2.9601 N.ar    1  LIG11      -0.0810
      8 N          -8.8615    1.5559    4.5105 N.ar    1  LIG11      -0.2175
      9 C          -3.5694   -0.6022   -0.5306 C.ar    1  LIG11       0.1162
     10 C          -4.7143    0.2210   -0.5260 C.ar    1  LIG11       0.0087
     11 C          -5.7179    0.2718    0.5453 C.ar    1  LIG11      -0.0160
     12 C          -2.6455   -0.5354   -1.5910 C.ar    1  LIG11      -0.0345
     13 C          -4.0498   -3.5971   -0.8167 C.ar    1  LIG11       0.2399
     14 C          -4.9010    1.0840   -1.6266 C.ar    1  LIG11      -0.0521
     15 C          -3.0362   -4.3894   -1.3094 C.ar    1  LIG11       0.0350
     16 C          -5.6996    1.3251    1.4722 C.ar    1  LIG11      -0.0533
     17 C          -6.7452   -0.6769    0.6395 C.ar    1  LIG11      -0.0533
     18 C          -2.8593    0.3282   -2.6630 C.ar    1  LIG11      -0.0599
     19 C          -3.9883    1.1366   -2.6821 C.ar    1  LIG11      -0.0611
     20 C          -7.6617    0.4384    2.6062 C.ar    1  LIG11       0.0369
     21 C          -3.3940   -4.5755   -2.6742 C.ar    1  LIG11       0.0854
     22 C          -6.6608    1.4098    2.4843 C.ar    1  LIG11      -0.0489
     23 C          -7.6944   -0.6047    1.6691 C.ar    1  LIG11      -0.0489
     24 C          -1.8606   -4.9534   -0.6065 C.3     1  LIG11      -0.0330
     25 C          -2.6563   -5.3217   -3.7215 C.3     1  LIG11      -0.0188
     26 C          -8.6372    0.5467    3.6878 C.ar    1  LIG11       0.2271
     27 C         -10.2053   -0.1787    4.9799 C.ar    1  LIG11       0.1125
     28 C          -9.8609    1.1009    5.3312 C.ar    1  LIG11       0.0663
@<TRIPOS>BOND
     1     1     3    2
     2     1     4    2
     3     1     6    1
     4     1     9    1
     5     2     7   ar
     6     2    13   ar
     7     5    26   ar
     8     5    27   ar
     9     6    13    1
    10     7    21   ar
    11     8    26   ar
    12     8    28   ar
    13     9    10   ar
    14     9    12   ar
    15    10    11    1
    16    10    14   ar
    17    11    16   ar
    18    11    17   ar
    19    12    18   ar
    20    13    15   ar
    21    14    19   ar
    22    15    21   ar
    23    15    24    1
    24    16    22   ar
    25    17    23   ar
    26    18    19   ar
    27    20    22   ar
    28    20    23   ar
    29    20    26    1
    30    21    25    1
    31    27    28   ar
