@<TRIPOS>MOLECULE
16219006
 44 47 0 0 0
SMALL
GASTEIGER

@<TRIPOS>ATOM
      1 O           4.3586   -1.0577    2.2239 O.2     1  PRO11      -0.2738
      2 O           3.1691    1.0531   -1.3475 O.2     5  ASP55      -0.2735
      3 O           2.0418   -2.1972   -1.9006 O.2     2  VAL22      -0.2738
      4 O          -0.4848    2.9439    1.2396 O.2     4  TRP44      -0.2738
      5 O          -0.1776   -1.0733    1.7469 O.2     3  LEU33      -0.2738
      6 OD1         3.5656    4.6081   -1.0946 O.co2   5  ASP55      -0.5497
      7 OD2         3.0320    4.9705   -3.2821 O.co2   5  ASP55      -0.5497
      8 N           3.4228    1.7983    0.7792 N.am    1  PRO11      -0.2884
      9 N           4.1406   -1.1025   -0.0538 N.am    2  VAL22      -0.3022
     10 N           0.4596    1.9519   -0.6049 N.am    5  ASP55      -0.3021
     11 N           1.3080   -2.8060    0.1758 N.am    3  LEU33      -0.3025
     12 N          -1.0921   -0.3074   -0.2070 N.am    4  TRP44      -0.3022
     13 NE1        -5.4750   -0.7353   -1.3584 N.ar    4  TRP44      -0.3604
     14 CA          4.6591    1.0471    0.9953 C.3     1  PRO11       0.1023
     15 CB          5.2633    1.6632    2.2602 C.3     1  PRO11      -0.0243
     16 CG          4.0534    2.2194    3.0008 C.3     1  PRO11      -0.0350
     17 CD          3.1717    2.7234    1.8707 C.3     1  PRO11       0.0156
     18 C           4.3736   -0.4649    1.1467 C.2     1  PRO11       0.2342
     19 C           2.8504    1.8747   -0.4748 C.2     5  ASP55       0.2369
     20 CA          3.7241   -2.4939   -0.1472 C.3     2  VAL22       0.1017
     21 CA          1.6448    2.8248   -0.6818 C.3     5  ASP55       0.1047
     22 CB          4.7448   -3.3400   -0.9392 C.3     2  VAL22      -0.0197
     23 CA         -0.0876   -2.5579   -0.1606 C.3     3  LEU33       0.0996
     24 C           2.2990   -2.5001   -0.7377 C.2     2  VAL22       0.2342
     25 CB          1.7019    3.4845   -2.0491 C.3     5  ASP55       0.0138
     26 CA         -1.5564    0.9522    0.3871 C.3     4  TRP44       0.1034
     27 CB         -1.0203   -3.6719    0.3349 C.3     3  LEU33      -0.0236
     28 CG         -0.9920   -4.9569   -0.5204 C.3     3  LEU33      -0.0446
     29 C          -0.4428    2.0158    0.4336 C.2     4  TRP44       0.2343
     30 CB         -2.7478    1.5449   -0.3819 C.3     4  TRP44       0.0013
     31 C          -0.4467   -1.2477    0.5602 C.2     3  LEU33       0.2340
     32 CG1         5.0027   -2.8639   -2.3713 C.3     2  VAL22      -0.0605
     33 CG2         4.3511   -4.8198   -0.9436 C.3     2  VAL22      -0.0605
     34 CG         -3.9169    0.6082   -0.4979 C.ar    4  TRP44      -0.0201
     35 CG          2.8853    4.4409   -2.1445 C.2     5  ASP55       0.0440
     36 CD1         0.3228   -5.7277   -0.4010 C.3     3  LEU33      -0.0626
     37 CD2        -2.1508   -5.8728   -0.1145 C.3     3  LEU33      -0.0626
     38 CD2        -4.7354    0.1077    0.5671 C.ar    4  TRP44       0.0029
     39 CD1        -4.4115    0.0670   -1.6695 C.ar    4  TRP44       0.0060
     40 CE2        -5.6904   -0.7368   -0.0007 C.ar    4  TRP44       0.0467
     41 CE3        -4.7510    0.2900    1.9656 C.ar    4  TRP44      -0.0523
     42 CZ2        -6.6534   -1.4133    0.7586 C.ar    4  TRP44      -0.0378
     43 CZ3        -5.7038   -0.3818    2.7404 C.ar    4  TRP44      -0.0611
     44 CH2        -6.6397   -1.2217    2.1431 C.ar    4  TRP44      -0.0598
@<TRIPOS>BOND
     1     1    18    2
     2     2    19    2
     3     3    24    2
     4     4    29    2
     5     5    31    2
     6     6    35   ar
     7     7    35   ar
     8     8    14    1
     9     8    17    1
    10     8    19   am
    11     9    18   am
    12     9    20    1
    13    10    21    1
    14    10    29   am
    15    11    23    1
    16    11    24   am
    17    12    26    1
    18    12    31   am
    19    13    39   ar
    20    13    40   ar
    21    14    15    1
    22    14    18    1
    23    15    16    1
    24    16    17    1
    25    19    21    1
    26    20    22    1
    27    20    24    1
    28    21    25    1
    29    22    32    1
    30    22    33    1
    31    23    27    1
    32    23    31    1
    33    25    35    1
    34    26    29    1
    35    26    30    1
    36    27    28    1
    37    28    36    1
    38    28    37    1
    39    30    34    1
    40    34    38   ar
    41    34    39   ar
    42    38    40   ar
    43    38    41   ar
    44    40    42   ar
    45    41    43   ar
    46    42    44   ar
    47    43    44   ar
@<TRIPOS>MOLECULE
156690
 38 41 0 0 0
SMALL
GASTEIGER

@<TRIPOS>ATOM
      1 S          -7.2269    2.1840   -1.2318 S.O2    1  LIG11       0.0741
      2 O          -2.7697   -2.2080   -0.3172 O.2     1  LIG11      -0.2756
      3 O          -7.2945    2.0578    0.2051 O.2     1  LIG11      -0.1499
      4 O          -7.5665    3.4390   -1.8705 O.2     1  LIG11      -0.1499
      5 O          -7.4315   -1.4027    4.3448 O.2     1  LIG11      -0.4436
      6 O         -11.4487    1.1579   -3.0077 O.2     1  LIG11      -0.3578
      7 N          -1.7214   -0.9051    1.2563 N.am    1  LIG11      -0.3002
      8 N          -8.1241    0.9616   -1.9975 N.pl3   1  LIG11      -0.1965
      9 N          -5.3041   -1.7106    5.0399 N.ar    1  LIG11      -0.2175
     10 N         -10.0912    1.2011   -3.2456 N.ar    1  LIG11      -0.0614
     11 C          -1.0594   -4.4860   -0.1305 C.3     1  LIG11      -0.0295
     12 C          -0.8818   -3.2149    0.7524 C.3     1  LIG11       0.0290
     13 C          -0.8836   -4.1689   -1.6278 C.3     1  LIG11      -0.0596
     14 C           0.0390   -5.4944    0.2670 C.3     1  LIG11      -0.0596
     15 C          -2.4225   -5.1632    0.1052 C.3     1  LIG11      -0.0596
     16 C          -1.8710   -2.0764    0.5107 C.2     1  LIG11       0.2161
     17 C          -2.5985    0.2540    0.9701 C.3     1  LIG11       0.0400
     18 C          -4.0770   -0.0684    1.1137 C.ar    1  LIG11      -0.0216
     19 C          -5.0391    0.0000    0.0655 C.ar    1  LIG11      -0.0113
     20 C          -4.8067    0.6706   -1.2568 C.ar    1  LIG11       0.0090
     21 C          -0.6191   -0.6608    2.1745 C.3     1  LIG11       0.0035
     22 C          -4.4598   -0.5356    2.3983 C.ar    1  LIG11      -0.0442
     23 C          -5.5967    1.7030   -1.8257 C.ar    1  LIG11       0.1162
     24 C          -6.2772   -0.6187    0.3294 C.ar    1  LIG11      -0.0529
     25 C          -5.7453   -1.0039    2.6692 C.ar    1  LIG11       0.0372
     26 C          -6.6376   -1.0831    1.6050 C.ar    1  LIG11      -0.0489
     27 C          -3.7075    0.2663   -2.0465 C.ar    1  LIG11      -0.0521
     28 C          -5.2130    2.3462   -3.0295 C.ar    1  LIG11      -0.0345
     29 C          -3.3345    0.8927   -3.2415 C.ar    1  LIG11      -0.0611
     30 C          -6.0963   -1.4052    4.0260 C.ar    1  LIG11       0.2271
     31 C          -4.0776    1.9520   -3.7240 C.ar    1  LIG11      -0.0599
     32 C          -9.5086    1.0570   -2.0533 C.ar    1  LIG11       0.1837
     33 C         -10.4570    0.8349   -1.0261 C.ar    1  LIG11       0.0342
     34 C         -11.6661    0.9243   -1.6883 C.ar    1  LIG11       0.1390
     35 C         -10.2530    0.4991    0.3992 C.3     1  LIG11      -0.0330
     36 C          -7.4596   -1.7331    5.6659 C.ar    1  LIG11       0.1125
     37 C          -6.1686   -1.9334    6.0814 C.ar    1  LIG11       0.0663
     38 C         -13.0748    0.7717   -1.2776 C.3     1  LIG11      -0.0034
@<TRIPOS>BOND
     1     1     3    2
     2     1     4    2
     3     1     8    1
     4     1    23    1
     5     2    16    2
     6     5    30   ar
     7     5    36   ar
     8     6    10   ar
     9     6    34   ar
    10     7    16   am
    11     7    17    1
    12     7    21    1
    13     8    32    1
    14     9    30   ar
    15     9    37   ar
    16    10    32   ar
    17    11    12    1
    18    11    13    1
    19    11    14    1
    20    11    15    1
    21    12    16    1
    22    17    18    1
    23    18    19   ar
    24    18    22   ar
    25    19    20    1
    26    19    24   ar
    27    20    23   ar
    28    20    27   ar
    29    22    25   ar
    30    23    28   ar
    31    24    26   ar
    32    25    26   ar
    33    25    30    1
    34    27    29   ar
    35    28    31   ar
    36    29    31   ar
    37    32    33   ar
    38    33    34   ar
    39    33    35    1
    40    34    38    1
    41    36    37   ar
