@<TRIPOS>MOLECULE
16219006
 44 47 0 0 0
SMALL
GASTEIGER

@<TRIPOS>ATOM
      1 O           4.3441   -1.1357    2.2486 O.2     1  PRO11      -0.2738
      2 O           3.4182    1.1281   -1.4536 O.2     5  ASP55      -0.2735
      3 O           2.1663   -2.6611   -1.9436 O.2     2  VAL22      -0.2738
      4 O          -0.4157    3.0261    1.2871 O.2     4  TRP44      -0.2738
      5 O          -0.3105   -1.0558    1.7300 O.2     3  LEU33      -0.2738
      6 OD1         0.3952    1.4446   -2.9192 O.co2   5  ASP55      -0.5497
      7 OD2         1.5259    2.7765   -4.3990 O.co2   5  ASP55      -0.5497
      8 N           3.4844    1.7246    0.7233 N.am    1  PRO11      -0.2884
      9 N           4.1044   -1.2351   -0.0237 N.am    2  VAL22      -0.3022
     10 N           0.5412    1.8754   -0.4410 N.am    5  ASP55      -0.3021
     11 N           1.2727   -2.6605    0.1669 N.am    3  LEU33      -0.3025
     12 N          -1.1834   -0.1865   -0.2055 N.am    4  TRP44      -0.3022
     13 NE1        -5.4714   -0.5683   -1.3591 N.ar    4  TRP44      -0.3604
     14 CA          4.6879    0.9330    0.9827 C.3     1  PRO11       0.1023
     15 CB          5.2592    1.5539    2.2595 C.3     1  PRO11      -0.0243
     16 CG          4.0206    2.0465    2.9993 C.3     1  PRO11      -0.0350
     17 CD          3.1168    2.5316    1.8763 C.3     1  PRO11       0.0156
     18 C           4.3561   -0.5693    1.1566 C.2     1  PRO11       0.2342
     19 C           2.9456    1.8210   -0.5479 C.2     5  ASP55       0.2369
     20 CA          3.7070   -2.6423   -0.0637 C.3     2  VAL22       0.1017
     21 CA          1.6935    2.7120   -0.7217 C.3     5  ASP55       0.1047
     22 CB          4.7172   -3.5084   -0.8487 C.3     2  VAL22      -0.0197
     23 CA         -0.0859   -2.3828   -0.2822 C.3     3  LEU33       0.0996
     24 C           2.3204   -2.6752   -0.7256 C.2     2  VAL22       0.2342
     25 CB          1.6062    3.3300   -2.1131 C.3     5  ASP55       0.0138
     26 CA         -1.5941    1.0697    0.4347 C.3     4  TRP44       0.1034
     27 CB         -1.0402   -3.5452    0.0272 C.3     3  LEU33      -0.0236
     28 CG         -0.7059   -4.8703   -0.6880 C.3     3  LEU33      -0.0446
     29 C          -0.4209    2.0748    0.5079 C.2     4  TRP44       0.2343
     30 CB         -2.7714    1.7128   -0.3101 C.3     4  TRP44       0.0013
     31 C          -0.5248   -1.1485    0.5199 C.2     3  LEU33       0.2340
     32 CG1         4.2410   -4.9664   -0.9369 C.3     2  VAL22      -0.0605
     33 CG2         6.1013   -3.4812   -0.1920 C.3     2  VAL22      -0.0605
     34 CG         -3.9507    0.7891   -0.4548 C.ar    4  TRP44      -0.0201
     35 CG          1.1582    2.4075   -3.2499 C.2     5  ASP55       0.0440
     36 CD1        -1.6566   -5.9718   -0.2088 C.3     3  LEU33      -0.0626
     37 CD2        -0.7904   -4.7516   -2.2100 C.3     3  LEU33      -0.0626
     38 CD2        -4.7692    0.2495    0.5911 C.ar    4  TRP44       0.0029
     39 CD1        -4.4249    0.2646   -1.6421 C.ar    4  TRP44       0.0060
     40 CE2        -5.7003   -0.6036   -0.0037 C.ar    4  TRP44       0.0467
     41 CE3        -4.7916    0.3894    1.9943 C.ar    4  TRP44      -0.0523
     42 CZ2        -6.6469   -1.3265    0.7332 C.ar    4  TRP44      -0.0378
     43 CZ3        -5.7286   -0.3285    2.7468 C.ar    4  TRP44      -0.0611
     44 CH2        -6.6413   -1.1746    2.1228 C.ar    4  TRP44      -0.0598
@<TRIPOS>BOND
     1     1    18    2
     2     2    19    2
     3     3    24    2
     4     4    29    2
     5     5    31    2
     6     6    35   ar
     7     7    35   ar
     8     8    14    1
     9     8    17    1
    10     8    19   am
    11     9    18   am
    12     9    20    1
    13    10    21    1
    14    10    29   am
    15    11    23    1
    16    11    24   am
    17    12    26    1
    18    12    31   am
    19    13    39   ar
    20    13    40   ar
    21    14    15    1
    22    14    18    1
    23    15    16    1
    24    16    17    1
    25    19    21    1
    26    20    22    1
    27    20    24    1
    28    21    25    1
    29    22    32    1
    30    22    33    1
    31    23    27    1
    32    23    31    1
    33    25    35    1
    34    26    29    1
    35    26    30    1
    36    27    28    1
    37    28    36    1
    38    28    37    1
    39    30    34    1
    40    34    38   ar
    41    34    39   ar
    42    38    40   ar
    43    38    41   ar
    44    40    42   ar
    45    41    43   ar
    46    42    44   ar
    47    43    44   ar
@<TRIPOS>MOLECULE
HTS1204-03362316-01
 44 47 0 0 0
SMALL
USER_CHARGES

@<TRIPOS>ATOM
      1 C1         -3.7867    0.5037   -0.4494 C.ar    1  UNK11      -0.0199
      2 N1         -5.4105   -0.7765   -1.2942 N.ar    1  UNK11      -0.3494
      3 C2          2.3069   -2.1790   -0.0299 C.2     1  UNK11       0.3028
      4 C3         -4.2683   -0.0905   -1.6020 C.ar    1  UNK11       0.0086
      5 C4         -0.3144    1.9407    0.4784 C.2     1  UNK11       0.2342
      6 C5         -4.6946    0.1502    0.6024 C.ar    1  UNK11       0.0031
      7 C6         -0.4863   -1.4715    0.7247 C.2     1  UNK11       0.2340
      8 C7         -5.6947   -0.6564    0.0480 C.ar    1  UNK11       0.0491
      9 N2          1.3188   -3.1114    0.1446 N.am    1  UNK11      -0.2879
     10 N3          3.6073   -2.6502    0.0610 N.am    1  UNK11      -0.2856
     11 N4         -0.9220   -0.4367   -0.0852 N.am    1  UNK11      -0.3022
     12 N5          0.7438    1.7712   -0.3909 N.am    1  UNK11      -0.3054
     13 C8         -1.3931    0.8318    0.4649 C.3     1  UNK11       0.1034
     14 C9         -0.0765   -2.7246   -0.0874 C.3     1  UNK11       0.1011
     15 C10         1.7194    2.8517   -0.6728 C.3     1  UNK11       0.0680
     16 C11        -2.5735    1.3925   -0.3582 C.3     1  UNK11       0.0013
     17 C12         3.1952    2.3719   -0.8432 C.2     1  UNK11       0.0623
     18 C13         1.4599    3.5326   -2.0333 C.3     1  UNK11       0.0133
     19 O1          2.0179   -1.0008   -0.2266 O.2     1  UNK11      -0.2526
     20 O2         -0.4705   -1.4274    1.9520 O.2     1  UNK11      -0.2738
     21 O3         -0.5217    2.9918    1.0909 O.2     1  UNK11      -0.2738
     22 N6         -0.4012    4.2540   -3.4405 N.ar    1  UNK11      -0.2598
     23 O4          3.3782    1.4259   -1.6658 O.co2   1  UNK11      -0.5479
     24 C14        -0.9762   -3.9241    0.2738 C.3     1  UNK11      -0.0236
     25 C15         0.1754    4.3138   -2.2077 C.ar    1  UNK11       0.0434
     26 O5          4.0503    3.0080   -0.1616 O.co2   1  UNK11      -0.5479
     27 C16        -6.2145   -1.5075   -2.2468 C.3     1  UNK11       0.0119
     28 C17         4.6676   -1.6369   -0.0787 C.3     1  UNK11       0.0161
     29 C18         4.0033   -4.0520    0.1682 C.3     1  UNK11       0.0161
     30 C19        -6.7430   -1.1872    0.8182 C.ar    1  UNK11      -0.0376
     31 C20        -4.7561    0.4407    1.9817 C.ar    1  UNK11      -0.0523
     32 C21        -2.4963   -3.7098    0.1075 C.3     1  UNK11      -0.0446
     33 C22        -1.5061    4.9973   -3.6593 C.ar    1  UNK11       0.0279
     34 C23        -0.3365    5.1346   -1.2071 C.ar    1  UNK11      -0.0403
     35 C24        -3.1454   -3.1250    1.3663 C.3     1  UNK11      -0.0626
     36 C25        -3.1736   -5.0507   -0.1962 C.3     1  UNK11      -0.0626
     37 C26         6.0984   -2.1740   -0.1973 C.3     1  UNK11      -0.0371
     38 C27         4.3925   -4.6372   -1.1903 C.3     1  UNK11      -0.0371
     39 C28        -5.7916   -0.0903    2.7597 C.ar    1  UNK11      -0.0611
     40 C29        -6.7704   -0.8938    2.1839 C.ar    1  UNK11      -0.0598
     41 C30        -2.0849    5.8162   -2.7084 C.ar    1  UNK11      -0.0436
     42 C31        -1.4869    5.8810   -1.4579 C.ar    1  UNK11      -0.0586
     43 C32         6.3846   -3.0069   -1.4532 C.3     1  UNK11      -0.0516
     44 C33         5.1892   -3.7019   -2.1029 C.3     1  UNK11      -0.0516
@<TRIPOS>BOND
     1     2     4   ar
     2     3     9   am
     3     1     4   ar
     4     5    13    1
     5     1     6   ar
     6     7    11   am
     7     6     8   ar
     8     9    14    1
     9     3    10   am
    10    11    13    1
    11     5    12   am
    12    13    16    1
    13     7    14    1
    14    12    15    1
    15     1    16    1
    16    15    17    1
    17    15    18    1
    18     3    19    2
    19     7    20    2
    20     5    21    2
    21    22    25   ar
    22    17    23   ar
    23    14    24    1
    24    18    25    1
    25    17    26   ar
    26     2    27    1
    27    10    28    1
    28    10    29    1
    29     8    30   ar
    30     6    31   ar
    31    24    32    1
    32    22    33   ar
    33    25    34   ar
    34    32    35    1
    35    32    36    1
    36    28    37    1
    37    29    38    1
    38    31    39   ar
    39    39    40   ar
    40    41    42   ar
    41    34    42   ar
    42    37    43    1
    43    38    44    1
    44     2     8   ar
    45    30    40   ar
    46    33    41   ar
    47    43    44    1
