@<TRIPOS>MOLECULE
16219006
 44 47 0 0 0
SMALL
GASTEIGER

@<TRIPOS>ATOM
      1 O           4.2213   -0.9862    2.2555 O.2     1  PRO11      -0.2738
      2 O           3.2552    1.1050   -1.3622 O.2     5  ASP55      -0.2735
      3 O           1.9436   -1.8371   -1.7513 O.2     2  VAL22      -0.2738
      4 O          -0.5489    3.0042    1.1337 O.2     4  TRP44      -0.2738
      5 O          -0.6518   -1.2507    1.8135 O.2     3  LEU33      -0.2738
      6 OD1         3.0713    4.9368   -3.3284 O.co2   5  ASP55      -0.5497
      7 OD2         3.5757    4.6640   -1.1217 O.co2   5  ASP55      -0.5497
      8 N           3.4851    1.8359    0.7699 N.am    1  PRO11      -0.2884
      9 N           4.1827   -1.1025   -0.0323 N.am    2  VAL22      -0.3022
     10 N           0.5350    1.9409   -0.5870 N.am    5  ASP55      -0.3021
     11 N           1.2039   -2.7992    0.1820 N.am    3  LEU33      -0.3025
     12 N          -1.0968   -0.3073   -0.2373 N.am    4  TRP44      -0.3022
     13 NE1        -1.9534    1.6747   -4.1226 N.ar    4  TRP44      -0.3604
     14 CA          4.7034    1.0614    0.9939 C.3     1  PRO11       0.1023
     15 CB          5.3130    1.6700    2.2588 C.3     1  PRO11      -0.0243
     16 CG          4.1104    2.2501    2.9944 C.3     1  PRO11      -0.0350
     17 CD          3.2345    2.7597    1.8618 C.3     1  PRO11       0.0156
     18 C           4.3585   -0.4347    1.1647 C.2     1  PRO11       0.2342
     19 C           2.9170    1.9150   -0.4865 C.2     5  ASP55       0.2369
     20 CA          3.6259   -2.4466   -0.0843 C.3     2  VAL22       0.1017
     21 CA          1.6934    2.8446   -0.6799 C.3     5  ASP55       0.1047
     22 CB          4.5256   -3.4170   -0.8816 C.3     2  VAL22      -0.0197
     23 CA         -0.1891   -2.5738   -0.1731 C.3     3  LEU33       0.0996
     24 C           2.1974   -2.3255   -0.6518 C.2     2  VAL22       0.2342
     25 CB          1.7192    3.5067   -2.0476 C.3     5  ASP55       0.0138
     26 CA         -1.5672    0.9835    0.2789 C.3     4  TRP44       0.1034
     27 CB         -1.0691   -3.7725    0.1928 C.3     3  LEU33      -0.0236
     28 CG         -0.7283   -5.0675   -0.5750 C.3     3  LEU33      -0.0446
     29 C          -0.4568    2.0530    0.3579 C.2     4  TRP44       0.2343
     30 CB         -2.7751    1.4978   -0.5251 C.3     4  TRP44       0.0013
     31 C          -0.6645   -1.3212    0.5846 C.2     3  LEU33       0.2340
     32 CG1         4.7641   -3.0129   -2.3387 C.3     2  VAL22      -0.0605
     33 CG2         3.9864   -4.8501   -0.8195 C.3     2  VAL22      -0.0605
     34 CG         -2.4901    1.8344   -1.9628 C.ar    4  TRP44      -0.0201
     35 CG          2.9051    4.4562   -2.1712 C.2     5  ASP55       0.0440
     36 CD1        -1.6868   -6.1827   -0.1513 C.3     3  LEU33      -0.0626
     37 CD2        -0.7854   -4.8912   -2.0942 C.3     3  LEU33      -0.0626
     38 CD2        -2.4262    3.1523   -2.5257 C.ar    4  TRP44       0.0029
     39 CD1        -2.2491    0.9499   -2.9988 C.ar    4  TRP44       0.0060
     40 CE2        -2.0897    3.0178   -3.8721 C.ar    4  TRP44       0.0467
     41 CE3        -2.6062    4.4520   -2.0083 C.ar    4  TRP44      -0.0523
     42 CZ2        -1.9168    4.1135   -4.7256 C.ar    4  TRP44      -0.0378
     43 CZ3        -2.4510    5.5589   -2.8508 C.ar    4  TRP44      -0.0611
     44 CH2        -2.1080    5.3891   -4.1891 C.ar    4  TRP44      -0.0598
@<TRIPOS>BOND
     1     1    18    2
     2     2    19    2
     3     3    24    2
     4     4    29    2
     5     5    31    2
     6     6    35   ar
     7     7    35   ar
     8     8    14    1
     9     8    17    1
    10     8    19   am
    11     9    18   am
    12     9    20    1
    13    10    21    1
    14    10    29   am
    15    11    23    1
    16    11    24   am
    17    12    26    1
    18    12    31   am
    19    13    39   ar
    20    13    40   ar
    21    14    15    1
    22    14    18    1
    23    15    16    1
    24    16    17    1
    25    19    21    1
    26    20    22    1
    27    20    24    1
    28    21    25    1
    29    22    32    1
    30    22    33    1
    31    23    27    1
    32    23    31    1
    33    25    35    1
    34    26    29    1
    35    26    30    1
    36    27    28    1
    37    28    36    1
    38    28    37    1
    39    30    34    1
    40    34    38   ar
    41    34    39   ar
    42    38    40   ar
    43    38    41   ar
    44    40    42   ar
    45    41    43   ar
    46    42    44   ar
    47    43    44   ar
@<TRIPOS>MOLECULE
02228316B
 42 46 0 0 0
SMALL
GASTEIGER

@<TRIPOS>ATOM
      1 C           2.2821   -2.8212   -0.6115 C.3     1  LIG11       0.2491
      2 C           1.4123   -2.0825   -1.6100 C.2     1  LIG11       0.3556
      3 N           1.3547   -3.8159   -0.0150 N.2     1  LIG11      -0.0687
      4 C           2.8211   -1.9009    0.4911 C.3     1  LIG11       0.0059
      5 C           3.4905   -3.5062   -1.2508 C.3     1  LIG11       0.0059
      6 N           0.1243   -2.4699   -1.3444 N.am    1  LIG11      -0.1529
      7 O           1.8016   -1.3109   -2.4718 O.2     1  LIG11      -0.2422
      8 C           0.1879   -3.5124   -0.4942 C.2     1  LIG11       0.2916
      9 C           4.3221   -1.8301    0.2386 C.3     1  LIG11      -0.0481
     10 C           4.6529   -3.2068   -0.3099 C.3     1  LIG11      -0.0481
     11 C          -0.9964   -2.0782   -2.1847 C.3     1  LIG11       0.1137
     12 C          -1.0168   -4.3363   -0.0989 C.3     1  LIG11       0.0509
     13 C          -1.3780   -0.6177   -2.2504 C.ar    1  LIG11      -0.0073
     14 C          -1.1880   -5.5974   -0.9535 C.3     1  LIG11      -0.0424
     15 C          -0.7486    0.4046   -1.5384 C.ar    1  LIG11      -0.0491
     16 C          -2.4115   -0.2628   -3.1222 C.ar    1  LIG11      -0.0544
     17 C          -1.8501   -5.3395   -2.3088 C.3     1  LIG11      -0.0554
     18 C          -1.0292    1.7693   -1.7926 C.ar    1  LIG11      -0.0138
     19 C          -2.7230    1.0763   -3.3571 C.ar    1  LIG11      -0.0533
     20 C          -2.2004   -6.6318   -3.0282 C.3     1  LIG11      -0.0653
     21 C          -1.9788    2.1160   -2.7839 C.ar    1  LIG11      -0.0106
     22 C          -0.2569    2.7936   -0.9849 C.3     1  LIG11       0.0732
     23 C          -2.2193    3.5049   -3.2382 C.ar    1  LIG11       0.0091
     24 O           0.7690    3.4570   -1.7135 O.3     1  LIG11      -0.3754
     25 C          -1.9089    4.0119   -4.5209 C.ar    1  LIG11       0.1162
     26 C          -2.8088    4.4060   -2.3235 C.ar    1  LIG11      -0.0521
     27 C           1.8960    2.6521   -2.0559 C.3     1  LIG11       0.0453
     28 S          -1.2102    3.0616   -5.8590 S.O2    1  LIG11       0.0741
     29 C          -2.1120    5.3774   -4.8216 C.ar    1  LIG11      -0.0345
     30 C          -3.0083    5.7560   -2.6294 C.ar    1  LIG11      -0.0611
     31 C           2.6812    2.1820   -0.8412 C.3     1  LIG11      -0.0416
     32 N          -2.4131    3.1228   -7.0526 N.pl3   1  LIG11      -0.1965
     33 O          -0.9877    1.6729   -5.5276 O.2     1  LIG11      -0.1499
     34 O          -0.1212    3.8444   -6.4154 O.2     1  LIG11      -0.1499
     35 C          -2.6472    6.2438   -3.8764 C.ar    1  LIG11      -0.0599
     36 C          -3.4611    2.2091   -7.0048 C.ar    1  LIG11       0.1837
     37 C          -3.6585    1.1091   -7.8788 C.ar    1  LIG11       0.0342
     38 N          -4.4689    2.3395   -6.1397 N.ar    1  LIG11      -0.0614
     39 C          -4.8408    0.5528   -7.4320 C.ar    1  LIG11       0.1390
     40 C          -2.7975    0.6181   -8.9763 C.3     1  LIG11      -0.0330
     41 O          -5.3253    1.2896   -6.3991 O.2     1  LIG11      -0.3578
     42 C          -5.6438   -0.6208   -7.8223 C.3     1  LIG11      -0.0034
@<TRIPOS>BOND
     1     1     5    1
     2     1     4    1
     3     1     2    1
     4     1     3    1
     5     2     6   am
     6     2     7    2
     7     3     8    2
     8     4     9    1
     9     5    10    1
    10     6     8    1
    11     6    11    1
    12     8    12    1
    13     9    10    1
    14    11    13    1
    15    12    14    1
    16    13    15   ar
    17    13    16   ar
    18    14    17    1
    19    15    18   ar
    20    16    19   ar
    21    17    20    1
    22    18    21   ar
    23    18    22    1
    24    19    21   ar
    25    21    23    1
    26    22    24    1
    27    23    26   ar
    28    23    25   ar
    29    24    27    1
    30    25    29   ar
    31    25    28    1
    32    26    30   ar
    33    27    31    1
    34    28    34    2
    35    28    33    2
    36    28    32    1
    37    29    35   ar
    38    30    35   ar
    39    32    36    1
    40    36    37   ar
    41    36    38   ar
    42    37    39   ar
    43    37    40    1
    44    38    41   ar
    45    39    41   ar
    46    39    42    1
