@<TRIPOS>MOLECULE
16219006
 44 47 0 0 0
SMALL
GASTEIGER

@<TRIPOS>ATOM
      1 O           4.2274   -1.1746    2.3406 O.2     1  PRO11      -0.2738
      2 O           3.2084    0.9175   -1.2431 O.2     5  ASP55      -0.2735
      3 O           2.1239   -2.3775   -1.8853 O.2     2  VAL22      -0.2738
      4 O          -0.4503    3.0332    1.1850 O.2     4  TRP44      -0.2738
      5 O          -0.4811   -1.0768    1.7455 O.2     3  LEU33      -0.2738
      6 OD1         3.8195    4.4774   -0.9621 O.co2   5  ASP55      -0.5497
      7 OD2         3.4722    4.7475   -3.1982 O.co2   5  ASP55      -0.5497
      8 N           3.4923    1.6883    0.8701 N.am    1  PRO11      -0.2884
      9 N           4.1556   -1.2585    0.0544 N.am    2  VAL22      -0.3022
     10 N           0.5598    1.9773   -0.5853 N.am    5  ASP55      -0.3021
     11 N           1.2461   -2.6823    0.2041 N.am    3  LEU33      -0.3025
     12 N          -1.1553   -0.2090   -0.2698 N.am    4  TRP44      -0.3022
     13 NE1        -2.2121    1.7494   -4.1114 N.ar    4  TRP44      -0.3604
     14 CA          4.6959    0.8907    1.0951 C.3     1  PRO11       0.1023
     15 CB          5.3211    1.4916    2.3570 C.3     1  PRO11      -0.0243
     16 CG          4.1352    2.1112    3.0865 C.3     1  PRO11      -0.0350
     17 CD          3.2791    2.6385    1.9475 C.3     1  PRO11       0.0156
     18 C           4.3430   -0.6064    1.2562 C.2     1  PRO11       0.2342
     19 C           2.9292    1.7707   -0.3871 C.2     5  ASP55       0.2369
     20 CA          3.6888   -2.6359   -0.0325 C.3     2  VAL22       0.1017
     21 CA          1.7879    2.7890   -0.6221 C.3     5  ASP55       0.1047
     22 CB          4.6454   -3.5076   -0.8748 C.3     2  VAL22      -0.0197
     23 CA         -0.1205   -2.4334   -0.2295 C.3     3  LEU33       0.0996
     24 C           2.2945   -2.5670   -0.6823 C.2     2  VAL22       0.2342
     25 CB          1.9396    3.4468   -1.9838 C.3     5  ASP55       0.0138
     26 CA         -1.5701    1.0819    0.2925 C.3     4  TRP44       0.1034
     27 CB         -1.0460   -3.6114    0.1014 C.3     3  LEU33      -0.0236
     28 CG         -0.6973   -4.9270   -0.6266 C.3     3  LEU33      -0.0446
     29 C          -0.4116    2.1028    0.3801 C.2     4  TRP44       0.2343
     30 CB         -2.7737    1.6676   -0.4650 C.3     4  TRP44       0.0013
     31 C          -0.5917   -1.1805    0.5253 C.2     3  LEU33       0.2340
     32 CG1         4.1169   -4.9432   -0.9971 C.3     2  VAL22      -0.0605
     33 CG2         6.0489   -3.5444   -0.2597 C.3     2  VAL22      -0.0605
     34 CG         -2.5163    1.9683   -1.9135 C.ar    4  TRP44      -0.0201
     35 CG          3.2002    4.3008   -2.0477 C.2     5  ASP55       0.0440
     36 CD1        -1.6416   -6.0400   -0.1634 C.3     3  LEU33      -0.0626
     37 CD2        -0.7713   -4.7956   -2.1489 C.3     3  LEU33      -0.0626
     38 CD2        -2.1330    3.2375   -2.4565 C.ar    4  TRP44       0.0029
     39 CD1        -2.5901    1.0849   -2.9748 C.ar    4  TRP44       0.0060
     40 CE2        -1.9352    3.0642   -3.8255 C.ar    4  TRP44       0.0467
     41 CE3        -1.9032    4.5128   -1.9001 C.ar    4  TRP44      -0.0523
     42 CZ2        -1.5045    4.0979   -4.6654 C.ar    4  TRP44      -0.0378
     43 CZ3        -1.4760    5.5583   -2.7257 C.ar    4  TRP44      -0.0611
     44 CH2        -1.2748    5.3493   -4.0872 C.ar    4  TRP44      -0.0598
@<TRIPOS>BOND
     1     1    18    2
     2     2    19    2
     3     3    24    2
     4     4    29    2
     5     5    31    2
     6     6    35   ar
     7     7    35   ar
     8     8    14    1
     9     8    17    1
    10     8    19   am
    11     9    18   am
    12     9    20    1
    13    10    21    1
    14    10    29   am
    15    11    23    1
    16    11    24   am
    17    12    26    1
    18    12    31   am
    19    13    39   ar
    20    13    40   ar
    21    14    15    1
    22    14    18    1
    23    15    16    1
    24    16    17    1
    25    19    21    1
    26    20    22    1
    27    20    24    1
    28    21    25    1
    29    22    32    1
    30    22    33    1
    31    23    27    1
    32    23    31    1
    33    25    35    1
    34    26    29    1
    35    26    30    1
    36    27    28    1
    37    28    36    1
    38    28    37    1
    39    30    34    1
    40    34    38   ar
    41    34    39   ar
    42    38    40   ar
    43    38    41   ar
    44    40    42   ar
    45    41    43   ar
    46    42    44   ar
    47    43    44   ar
@<TRIPOS>MOLECULE
159594
 37 40 0 0 0
SMALL
GASTEIGER

@<TRIPOS>ATOM
      1 O           3.6339    4.1255   -0.8733 O.co2   1  LIG11      -0.5493
      2 O           4.1749    4.7587   -2.9998 O.co2   1  LIG11      -0.5493
      3 O          -3.5361    5.5746   -1.5102 O.3     1  LIG11      -0.4526
      4 O          -0.1857   -0.2350   -0.4230 O.2     1  LIG11      -0.2697
      5 O          -4.1811    4.5791   -3.6101 O.3     1  LIG11      -0.4526
      6 O           4.0235   -0.5666   -7.3931 O.3     1  LIG11      -0.4951
      7 N           1.6186    1.4249   -1.6361 N.3     1  LIG11       0.2481
      8 N           1.2947   -1.8444    0.3096 N.am    1  LIG11      -0.2971
      9 C           2.2107    3.5301   -2.6451 C.3     1  LIG11       0.0574
     10 C           1.0593    3.7555   -1.6628 C.3     1  LIG11       0.0378
     11 C           2.6870    2.0824   -2.5014 C.3     1  LIG11       0.0143
     12 C           1.1240    2.5419   -0.7362 C.3     1  LIG11      -0.0230
     13 C          -0.3308    3.9105   -2.2693 C.ar    1  LIG11      -0.0347
     14 C           2.9762    1.3855   -3.8265 C.ar    1  LIG11       0.0011
     15 C           2.1211    0.2151   -0.8719 C.3     1  LIG11       0.0468
     16 C           3.4517    4.2381   -2.1172 C.2     1  LIG11       0.0513
     17 C          -1.2708    4.6795   -1.5487 C.ar    1  LIG11      -0.0125
     18 C           0.9753   -0.6352   -0.3023 C.2     1  LIG11       0.2608
     19 C          -0.7252    3.3279   -3.4946 C.ar    1  LIG11      -0.0544
     20 C           4.1045    1.8114   -4.5541 C.ar    1  LIG11      -0.0498
     21 C           2.2406    0.3103   -4.3429 C.ar    1  LIG11      -0.0498
     22 C          -2.5331    4.8489   -2.0740 C.ar    1  LIG11       0.1665
     23 C          -2.0205    3.5123   -3.9987 C.ar    1  LIG11      -0.0159
     24 C          -2.8995    4.2821   -3.2665 C.ar    1  LIG11       0.1662
     25 C           4.4873    1.1953   -5.7495 C.ar    1  LIG11      -0.0195
     26 C           2.6342   -0.3138   -5.5353 C.ar    1  LIG11      -0.0195
     27 C           0.2174   -2.6371    0.9191 C.3     1  LIG11       0.0148
     28 C           2.6732   -2.3148    0.5217 C.3     1  LIG11       0.0148
     29 C           3.7505    0.1281   -6.2477 C.ar    1  LIG11       0.1201
     30 C          -0.8678   -3.1511   -0.0363 C.3     1  LIG11      -0.0374
     31 C           3.1083   -3.3128   -0.5514 C.3     1  LIG11      -0.0374
     32 C          -4.5619    5.4401   -2.5151 C.3     1  LIG11       0.2332
     33 C          -0.3406   -4.0888   -1.1196 C.3     1  LIG11      -0.0545
     34 C           4.5542   -3.7865   -0.3958 C.3     1  LIG11      -0.0545
     35 C          -1.4717   -4.6281   -1.9824 C.3     1  LIG11      -0.0652
     36 C           5.5807   -2.6914   -0.6403 C.3     1  LIG11      -0.0652
     37 C           4.9841    0.0151   -8.2696 C.3     1  LIG11       0.0788
@<TRIPOS>BOND
     1     1    16   ar
     2     2    16   ar
     3     3    22    1
     4     3    32    1
     5     4    18    2
     6     5    24    1
     7     5    32    1
     8     6    29    1
     9     6    37    1
    10     7    11    1
    11     7    12    1
    12     7    15    1
    13     8    18   am
    14     8    27    1
    15     8    28    1
    16     9    10    1
    17     9    11    1
    18     9    16    1
    19    10    12    1
    20    10    13    1
    21    11    14    1
    22    13    17   ar
    23    13    19   ar
    24    14    20   ar
    25    14    21   ar
    26    15    18    1
    27    17    22   ar
    28    19    23   ar
    29    20    25   ar
    30    21    26   ar
    31    22    24   ar
    32    23    24   ar
    33    25    29   ar
    34    26    29   ar
    35    27    30    1
    36    28    31    1
    37    30    33    1
    38    31    34    1
    39    33    35    1
    40    34    36    1
