@<TRIPOS>MOLECULE
16219006
 44 47 0 0 0
SMALL
GASTEIGER

@<TRIPOS>ATOM
      1 O           4.2052   -0.9956    2.2276 O.2     1  PRO11      -0.2738
      2 O           3.2826    1.0914   -1.4007 O.2     5  ASP55      -0.2735
      3 O           2.0132   -1.8009   -1.8090 O.2     2  VAL22      -0.2738
      4 O          -0.3932    3.0238    1.1975 O.2     4  TRP44      -0.2738
      5 O          -0.3268   -1.2309    1.7402 O.2     3  LEU33      -0.2738
      6 OD1         2.8968    5.0753   -3.3476 O.co2   5  ASP55      -0.5497
      7 OD2         3.5915    4.6282   -1.2228 O.co2   5  ASP55      -0.5497
      8 N           3.4934    1.8259    0.7315 N.am    1  PRO11      -0.2884
      9 N           4.2093   -1.1229   -0.0608 N.am    2  VAL22      -0.3022
     10 N           0.5361    1.9446   -0.6034 N.am    5  ASP55      -0.3021
     11 N           1.2182   -2.8492    0.0564 N.am    3  LEU33      -0.3025
     12 N          -1.0758   -0.2528   -0.1955 N.am    4  TRP44      -0.3022
     13 NE1        -5.6245   -0.4074   -1.2754 N.ar    4  TRP44      -0.3604
     14 CA          4.7075    1.0469    0.9671 C.3     1  PRO11       0.1023
     15 CB          5.3087    1.6553    2.2366 C.3     1  PRO11      -0.0243
     16 CG          4.1045    2.2481    2.9583 C.3     1  PRO11      -0.0350
     17 CD          3.2441    2.7597    1.8155 C.3     1  PRO11       0.0156
     18 C           4.3610   -0.4490    1.1370 C.2     1  PRO11       0.2342
     19 C           2.9362    1.9023   -0.5300 C.2     5  ASP55       0.2369
     20 CA          3.6443   -2.4656   -0.1170 C.3     2  VAL22       0.1017
     21 CA          1.7110    2.8290   -0.7351 C.3     5  ASP55       0.1047
     22 CB          4.5560   -3.4473   -0.8858 C.3     2  VAL22      -0.0197
     23 CA         -0.1665   -2.5389   -0.2919 C.3     3  LEU33       0.0996
     24 C           2.2346   -2.3345   -0.7239 C.2     2  VAL22       0.2342
     25 CB          1.7227    3.4625   -2.1156 C.3     5  ASP55       0.0138
     26 CA         -1.4787    0.9968    0.4581 C.3     4  TRP44       0.1034
     27 CB         -1.0754   -3.7185    0.0670 C.3     3  LEU33      -0.0236
     28 CG         -2.5542   -3.5315   -0.3213 C.3     3  LEU33      -0.0446
     29 C          -0.3631    2.0616    0.4312 C.2     4  TRP44       0.2343
     30 CB         -2.7406    1.6063   -0.1721 C.3     4  TRP44       0.0013
     31 C          -0.5274   -1.2868    0.5273 C.2     3  LEU33       0.2340
     32 CG1         4.8146   -3.0622   -2.3450 C.3     2  VAL22      -0.0605
     33 CG2         4.0133   -4.8787   -0.8131 C.3     2  VAL22      -0.0605
     34 CG         -3.9069    0.6663   -0.3339 C.ar    4  TRP44      -0.0201
     35 CG          2.8521    4.4800   -2.2337 C.2     5  ASP55       0.0440
     36 CD1        -2.7539   -3.3113   -1.8206 C.3     3  LEU33      -0.0626
     37 CD2        -3.3694   -4.7424    0.1371 C.3     3  LEU33      -0.0626
     38 CD2        -4.4760   -0.2368    0.6283 C.ar    4  TRP44       0.0029
     39 CD1        -4.6561    0.5327   -1.4893 C.ar    4  TRP44       0.0060
     40 CE2        -5.5268   -0.9095   -0.0004 C.ar    4  TRP44       0.0467
     41 CE3        -4.1893   -0.5711    1.9692 C.ar    4  TRP44      -0.0523
     42 CZ2        -6.2852   -1.9030    0.6327 C.ar    4  TRP44      -0.0378
     43 CZ3        -4.9275   -1.5718    2.6134 C.ar    4  TRP44      -0.0611
     44 CH2        -5.9592   -2.2293    1.9513 C.ar    4  TRP44      -0.0598
@<TRIPOS>BOND
     1     1    18    2
     2     2    19    2
     3     3    24    2
     4     4    29    2
     5     5    31    2
     6     6    35   ar
     7     7    35   ar
     8     8    14    1
     9     8    17    1
    10     8    19   am
    11     9    18   am
    12     9    20    1
    13    10    21    1
    14    10    29   am
    15    11    23    1
    16    11    24   am
    17    12    26    1
    18    12    31   am
    19    13    39   ar
    20    13    40   ar
    21    14    15    1
    22    14    18    1
    23    15    16    1
    24    16    17    1
    25    19    21    1
    26    20    22    1
    27    20    24    1
    28    21    25    1
    29    22    32    1
    30    22    33    1
    31    23    27    1
    32    23    31    1
    33    25    35    1
    34    26    29    1
    35    26    30    1
    36    27    28    1
    37    28    36    1
    38    28    37    1
    39    30    34    1
    40    34    38   ar
    41    34    39   ar
    42    38    40   ar
    43    38    41   ar
    44    40    42   ar
    45    41    43   ar
    46    42    44   ar
    47    43    44   ar
@<TRIPOS>MOLECULE
9871593
 37 40 0 0 0
SMALL
GASTEIGER

@<TRIPOS>ATOM
      1 O          -2.9779   -7.9182    2.3864 O.3     1  LIG11      -0.4526
      2 O          -1.9892   -7.2402    4.4818 O.3     1  LIG11      -0.4526
      3 O          -4.2502   -0.5679    4.2920 O.3     1  LIG11      -0.4913
      4 O          -8.2419   -1.5306    1.9020 O.3     1  LIG11      -0.4913
      5 O          -7.0569   -0.4546    3.9711 O.3     1  LIG11      -0.4885
      6 O          -1.2344   -1.0209   -0.5535 O.2     1  LIG11      -0.2870
      7 O          -0.1646   -3.7111   -1.8144 O.co2   1  LIG11      -0.5446
      8 O           0.9035   -3.5097    0.2066 O.co2   1  LIG11      -0.5446
      9 O          -6.3154    1.2628   -3.4677 O.3     1  LIG11      -0.4951
     10 C          -3.9760   -3.3250    0.1555 C.3     1  LIG11       0.0021
     11 C          -2.5487   -2.9931   -0.2016 C.2     1  LIG11       0.0135
     12 C          -4.7186   -2.4255    1.1154 C.ar    1  LIG11      -0.0358
     13 C          -1.4843   -3.7585    0.1436 C.2     1  LIG11       0.0117
     14 C          -1.5146   -4.7518    1.2336 C.ar    1  LIG11      -0.0121
     15 C          -2.2497   -1.6574   -0.8384 C.2     1  LIG11       0.1901
     16 C          -6.1126   -2.3221    0.9914 C.ar    1  LIG11      -0.0126
     17 C          -4.0864   -1.8293    2.2136 C.ar    1  LIG11      -0.0126
     18 C          -2.1824   -5.9783    1.1338 C.ar    1  LIG11      -0.0084
     19 C          -2.2957   -6.7438    2.2790 C.ar    1  LIG11       0.1668
     20 C          -0.9308   -4.3776    2.4699 C.ar    1  LIG11      -0.0503
     21 C          -1.7386   -6.3572    3.4779 C.ar    1  LIG11       0.1663
     22 C          -4.8218   -1.1266    3.1758 C.ar    1  LIG11       0.1654
     23 C          -6.8716   -1.6477    1.9468 C.ar    1  LIG11       0.1654
     24 C          -3.2997   -0.9182   -1.5784 C.ar    1  LIG11       0.0222
     25 C          -6.2238   -1.0358    3.0394 C.ar    1  LIG11       0.2035
     26 C          -1.0296   -5.1880    3.6032 C.ar    1  LIG11      -0.0156
     27 C          -0.1037   -3.6052   -0.5497 C.2     1  LIG11       0.0726
     28 C          -2.8280   -8.1878    3.7948 C.3     1  LIG11       0.2332
     29 C          -4.1055   -1.4910   -2.5603 C.ar    1  LIG11      -0.0475
     30 C          -3.4635    0.4368   -1.2546 C.ar    1  LIG11      -0.0475
     31 C          -5.1079   -0.7198   -3.1645 C.ar    1  LIG11      -0.0193
     32 C          -4.4541    1.2048   -1.8675 C.ar    1  LIG11      -0.0193
     33 C          -5.2942    0.6245   -2.8160 C.ar    1  LIG11       0.1201
     34 C          -2.8292   -0.4787    4.3171 C.3     1  LIG11       0.0790
     35 C          -8.9265   -2.2757    0.9043 C.3     1  LIG11       0.0790
     36 C          -6.6281    0.8104    4.4594 C.3     1  LIG11       0.0791
     37 C          -6.5407    2.6230   -3.1120 C.3     1  LIG11       0.0788
@<TRIPOS>BOND
     1     1    19    1
     2     1    28    1
     3     2    28    1
     4     2    21    1
     5     3    22    1
     6     3    34    1
     7     4    23    1
     8     4    35    1
     9     5    25    1
    10     5    36    1
    11     6    15    2
    12     7    27   ar
    13     8    27   ar
    14     9    33    1
    15     9    37    1
    16    10    11    1
    17    10    12    1
    18    11    13    2
    19    11    15    1
    20    12    16   ar
    21    12    17   ar
    22    13    14    1
    23    13    27    1
    24    14    20   ar
    25    14    18   ar
    26    15    24    1
    27    16    23   ar
    28    17    22   ar
    29    18    19   ar
    30    19    21   ar
    31    20    26   ar
    32    21    26   ar
    33    22    25   ar
    34    23    25   ar
    35    24    29   ar
    36    24    30   ar
    37    29    31   ar
    38    30    32   ar
    39    31    33   ar
    40    32    33   ar
