@<TRIPOS>MOLECULE
16219006
 44 47 0 0 0
SMALL
GASTEIGER

@<TRIPOS>ATOM
      1 O           4.1499   -1.0494    2.2394 O.2     1  PRO11      -0.2738
      2 O           2.8343    0.8273   -1.2519 O.2     5  ASP55      -0.2735
      3 O           2.1121   -2.4872   -1.9349 O.2     2  VAL22      -0.2738
      4 O          -0.4966    2.9240    1.3155 O.2     4  TRP44      -0.2738
      5 O          -0.3034   -1.0419    1.7179 O.2     3  LEU33      -0.2738
      6 OD1         2.6221    5.5642   -1.3565 O.co2   5  ASP55      -0.5497
      7 OD2         4.0430    3.9091   -2.0231 O.co2   5  ASP55      -0.5497
      8 N           3.3696    1.7641    0.7450 N.am    1  PRO11      -0.2884
      9 N           4.1127   -1.2350   -0.0428 N.am    2  VAL22      -0.3022
     10 N           0.3212    2.0257   -0.6384 N.am    5  ASP55      -0.3021
     11 N           1.2421   -2.7094    0.1703 N.am    3  LEU33      -0.3025
     12 N          -1.2164   -0.2313   -0.2218 N.am    4  TRP44      -0.3022
     13 NE1        -5.7470   -0.5938    0.0227 N.ar    4  TRP44      -0.3604
     14 CA          4.5865    0.9706    0.9085 C.3     1  PRO11       0.1023
     15 CB          5.2932    1.6025    2.1131 C.3     1  PRO11      -0.0243
     16 CG          4.1625    2.2613    2.8940 C.3     1  PRO11      -0.0350
     17 CD          3.2426    2.7608    1.7940 C.3     1  PRO11       0.0156
     18 C           4.2696   -0.5269    1.1322 C.2     1  PRO11       0.2342
     19 C           2.6797    1.7576   -0.4471 C.2     5  ASP55       0.2369
     20 CA          3.6809   -2.6285   -0.0747 C.3     2  VAL22       0.1017
     21 CA          1.5651    2.8129   -0.6665 C.3     5  ASP55       0.1047
     22 CB          4.6583   -3.5058   -0.8862 C.3     2  VAL22      -0.0197
     23 CA         -0.1225   -2.4313   -0.2562 C.3     3  LEU33       0.0996
     24 C           2.2860   -2.6183   -0.7243 C.2     2  VAL22       0.2342
     25 CB          1.7248    3.4931   -2.0152 C.3     5  ASP55       0.0138
     26 CA         -1.6684    1.0201    0.3972 C.3     4  TRP44       0.1034
     27 CB         -1.0738   -3.5867    0.0762 C.3     3  LEU33      -0.0236
     28 CG         -0.7466   -4.9129   -0.6424 C.3     3  LEU33      -0.0446
     29 C          -0.5254    2.0497    0.4520 C.2     4  TRP44       0.2343
     30 CB         -2.8452    1.6450   -0.3650 C.3     4  TRP44       0.0013
     31 C          -0.5456   -1.1752    0.5190 C.2     3  LEU33       0.2340
     32 CG1         4.1552   -4.9538   -0.9761 C.3     2  VAL22      -0.0605
     33 CG2         6.0560   -3.5036   -0.2583 C.3     2  VAL22      -0.0605
     34 CG         -4.0162    0.7140   -0.4912 C.ar    4  TRP44      -0.0201
     35 CG          2.9124    4.4136   -1.7863 C.2     5  ASP55       0.0440
     36 CD1        -1.7046   -6.0093   -0.1687 C.3     3  LEU33      -0.0626
     37 CD2        -0.8232   -4.7903   -2.1652 C.3     3  LEU33      -0.0626
     38 CD2        -4.5075    0.1066   -1.6919 C.ar    4  TRP44       0.0029
     39 CD1        -4.8153    0.2625    0.5414 C.ar    4  TRP44       0.0060
     40 CE2        -5.5833   -0.7086   -1.3375 C.ar    4  TRP44       0.0467
     41 CE3        -4.1334    0.1701   -3.0505 C.ar    4  TRP44      -0.0523
     42 CZ2        -6.3021   -1.4647   -2.2712 C.ar    4  TRP44      -0.0378
     43 CZ3        -4.8435   -0.5765   -3.9974 C.ar    4  TRP44      -0.0611
     44 CH2        -5.9113   -1.3822   -3.6106 C.ar    4  TRP44      -0.0598
@<TRIPOS>BOND
     1     1    18    2
     2     2    19    2
     3     3    24    2
     4     4    29    2
     5     5    31    2
     6     6    35   ar
     7     7    35   ar
     8     8    14    1
     9     8    17    1
    10     8    19   am
    11     9    18   am
    12     9    20    1
    13    10    21    1
    14    10    29   am
    15    11    23    1
    16    11    24   am
    17    12    26    1
    18    12    31   am
    19    13    39   ar
    20    13    40   ar
    21    14    15    1
    22    14    18    1
    23    15    16    1
    24    16    17    1
    25    19    21    1
    26    20    22    1
    27    20    24    1
    28    21    25    1
    29    22    32    1
    30    22    33    1
    31    23    27    1
    32    23    31    1
    33    25    35    1
    34    26    29    1
    35    26    30    1
    36    27    28    1
    37    28    36    1
    38    28    37    1
    39    30    34    1
    40    34    38   ar
    41    34    39   ar
    42    38    40   ar
    43    38    41   ar
    44    40    42   ar
    45    41    43   ar
    46    42    44   ar
    47    43    44   ar
@<TRIPOS>MOLECULE
6918493
 28 30 0 0 0
SMALL
GASTEIGER

@<TRIPOS>ATOM
      1 O          -2.6530   -0.9020    0.2702 O.3     1  LIG11      -0.3632
      2 O          -2.7928    2.7162   -0.8571 O.3     1  LIG11      -0.4495
      3 O          -1.6067    2.6542    1.6291 O.co2   1  LIG11      -0.5459
      4 O          -0.2764    0.9376    0.9634 O.co2   1  LIG11      -0.5459
      5 N          -0.6660    3.3511   -1.6145 N.ar    1  LIG11      -0.2002
      6 N          -2.3261    4.9626   -1.0370 N.ar    1  LIG11      -0.2002
      7 C          -3.2346    0.3618   -0.1785 C.3     1  LIG11       0.1609
      8 C          -2.1584    1.4769   -0.4132 C.3     1  LIG11       0.1791
      9 C          -4.2217    0.8058    0.9417 C.ar    1  LIG11      -0.0075
     10 C          -4.0464   -0.0510   -1.4559 C.ar    1  LIG11      -0.0075
     11 C          -3.9657    0.4958    2.2899 C.ar    1  LIG11      -0.0554
     12 C          -5.0126   -1.0785   -1.3503 C.ar    1  LIG11      -0.0554
     13 C          -5.3693    1.5716    0.6556 C.ar    1  LIG11      -0.0554
     14 C          -3.8434    0.5151   -2.7250 C.ar    1  LIG11      -0.0554
     15 C          -1.2843    1.7046    0.8573 C.2     1  LIG11       0.0856
     16 C          -1.6515   -1.4758   -0.5605 C.3     1  LIG11       0.0382
     17 C          -4.8266    0.9185    3.3062 C.ar    1  LIG11      -0.0614
     18 C          -5.7500   -1.5087   -2.4554 C.ar    1  LIG11      -0.0614
     19 C          -6.2409    1.9774    1.6697 C.ar    1  LIG11      -0.0614
     20 C          -4.5823    0.0834   -3.8331 C.ar    1  LIG11      -0.0614
     21 C          -5.9686    1.6514    2.9953 C.ar    1  LIG11      -0.0617
     22 C          -5.5332   -0.9238   -3.6990 C.ar    1  LIG11      -0.0617
     23 C          -1.8752    3.7034   -1.1468 C.ar    1  LIG11       0.3191
     24 C           0.2174    4.3442   -1.8040 C.ar    1  LIG11       0.0453
     25 C          -1.4209    5.9355   -1.2459 C.ar    1  LIG11       0.0453
     26 C          -0.1179    5.6715   -1.6262 C.ar    1  LIG11      -0.0193
     27 C           1.6081    3.9532   -2.1970 C.3     1  LIG11      -0.0221
     28 C          -1.8702    7.3468   -1.0249 C.3     1  LIG11      -0.0221
@<TRIPOS>BOND
     1     1     7    1
     2     1    16    1
     3     2     8    1
     4     2    23    1
     5     3    15   ar
     6     4    15   ar
     7     5    23   ar
     8     5    24   ar
     9     6    23   ar
    10     6    25   ar
    11     7     8    1
    12     7     9    1
    13     7    10    1
    14     8    15    1
    15     9    11   ar
    16     9    13   ar
    17    10    12   ar
    18    10    14   ar
    19    11    17   ar
    20    12    18   ar
    21    13    19   ar
    22    14    20   ar
    23    17    21   ar
    24    18    22   ar
    25    19    21   ar
    26    20    22   ar
    27    24    26   ar
    28    24    27    1
    29    25    26   ar
    30    25    28    1
