@<TRIPOS>MOLECULE
16219006
 44 47 0 0 0
SMALL
GASTEIGER

@<TRIPOS>ATOM
      1 O           4.3586   -1.0577    2.2239 O.2     1  PRO11      -0.2738
      2 O           3.1691    1.0531   -1.3475 O.2     5  ASP55      -0.2735
      3 O           2.0418   -2.1972   -1.9006 O.2     2  VAL22      -0.2738
      4 O          -0.4848    2.9439    1.2396 O.2     4  TRP44      -0.2738
      5 O          -0.1776   -1.0733    1.7469 O.2     3  LEU33      -0.2738
      6 OD1         3.5656    4.6081   -1.0946 O.co2   5  ASP55      -0.5497
      7 OD2         3.0320    4.9705   -3.2821 O.co2   5  ASP55      -0.5497
      8 N           3.4228    1.7983    0.7792 N.am    1  PRO11      -0.2884
      9 N           4.1406   -1.1025   -0.0538 N.am    2  VAL22      -0.3022
     10 N           0.4596    1.9519   -0.6049 N.am    5  ASP55      -0.3021
     11 N           1.3080   -2.8060    0.1758 N.am    3  LEU33      -0.3025
     12 N          -1.0921   -0.3074   -0.2070 N.am    4  TRP44      -0.3022
     13 NE1        -5.4750   -0.7353   -1.3584 N.ar    4  TRP44      -0.3604
     14 CA          4.6591    1.0471    0.9953 C.3     1  PRO11       0.1023
     15 CB          5.2633    1.6632    2.2602 C.3     1  PRO11      -0.0243
     16 CG          4.0534    2.2194    3.0008 C.3     1  PRO11      -0.0350
     17 CD          3.1717    2.7234    1.8707 C.3     1  PRO11       0.0156
     18 C           4.3736   -0.4649    1.1467 C.2     1  PRO11       0.2342
     19 C           2.8504    1.8747   -0.4748 C.2     5  ASP55       0.2369
     20 CA          3.7241   -2.4939   -0.1472 C.3     2  VAL22       0.1017
     21 CA          1.6448    2.8248   -0.6818 C.3     5  ASP55       0.1047
     22 CB          4.7448   -3.3400   -0.9392 C.3     2  VAL22      -0.0197
     23 CA         -0.0876   -2.5579   -0.1606 C.3     3  LEU33       0.0996
     24 C           2.2990   -2.5001   -0.7377 C.2     2  VAL22       0.2342
     25 CB          1.7019    3.4845   -2.0491 C.3     5  ASP55       0.0138
     26 CA         -1.5564    0.9522    0.3871 C.3     4  TRP44       0.1034
     27 CB         -1.0203   -3.6719    0.3349 C.3     3  LEU33      -0.0236
     28 CG         -0.9920   -4.9569   -0.5204 C.3     3  LEU33      -0.0446
     29 C          -0.4428    2.0158    0.4336 C.2     4  TRP44       0.2343
     30 CB         -2.7478    1.5449   -0.3819 C.3     4  TRP44       0.0013
     31 C          -0.4467   -1.2477    0.5602 C.2     3  LEU33       0.2340
     32 CG1         5.0027   -2.8639   -2.3713 C.3     2  VAL22      -0.0605
     33 CG2         4.3511   -4.8198   -0.9436 C.3     2  VAL22      -0.0605
     34 CG         -3.9169    0.6082   -0.4979 C.ar    4  TRP44      -0.0201
     35 CG          2.8853    4.4409   -2.1445 C.2     5  ASP55       0.0440
     36 CD1         0.3228   -5.7277   -0.4010 C.3     3  LEU33      -0.0626
     37 CD2        -2.1508   -5.8728   -0.1145 C.3     3  LEU33      -0.0626
     38 CD2        -4.7354    0.1077    0.5671 C.ar    4  TRP44       0.0029
     39 CD1        -4.4115    0.0670   -1.6695 C.ar    4  TRP44       0.0060
     40 CE2        -5.6904   -0.7368   -0.0007 C.ar    4  TRP44       0.0467
     41 CE3        -4.7510    0.2900    1.9656 C.ar    4  TRP44      -0.0523
     42 CZ2        -6.6534   -1.4133    0.7586 C.ar    4  TRP44      -0.0378
     43 CZ3        -5.7038   -0.3818    2.7404 C.ar    4  TRP44      -0.0611
     44 CH2        -6.6397   -1.2217    2.1431 C.ar    4  TRP44      -0.0598
@<TRIPOS>BOND
     1     1    18    2
     2     2    19    2
     3     3    24    2
     4     4    29    2
     5     5    31    2
     6     6    35   ar
     7     7    35   ar
     8     8    14    1
     9     8    17    1
    10     8    19   am
    11     9    18   am
    12     9    20    1
    13    10    21    1
    14    10    29   am
    15    11    23    1
    16    11    24   am
    17    12    26    1
    18    12    31   am
    19    13    39   ar
    20    13    40   ar
    21    14    15    1
    22    14    18    1
    23    15    16    1
    24    16    17    1
    25    19    21    1
    26    20    22    1
    27    20    24    1
    28    21    25    1
    29    22    32    1
    30    22    33    1
    31    23    27    1
    32    23    31    1
    33    25    35    1
    34    26    29    1
    35    26    30    1
    36    27    28    1
    37    28    36    1
    38    28    37    1
    39    30    34    1
    40    34    38   ar
    41    34    39   ar
    42    38    40   ar
    43    38    41   ar
    44    40    42   ar
    45    41    43   ar
    46    42    44   ar
    47    43    44   ar
@<TRIPOS>MOLECULE
*****
 29 31 0 0 0
SMALL
GASTEIGER

@<TRIPOS>ATOM
      1 BR         -7.6129   -1.1359    4.2083 Br      1  LIG11      -0.0503
      2 BR         -1.7169   -2.3940   -6.9079 Br      1  LIG11      -0.0472
      3 S          -6.3083    2.5100   -1.8667 S.O2    1  LIG11       0.1079
      4 O          -2.1896   -0.9682    0.1691 O.3     1  LIG11      -0.4724
      5 O          -5.4288    3.3324   -2.6584 O.2     1  LIG11      -0.1383
      6 O          -7.7374    2.6966   -1.8881 O.2     1  LIG11      -0.1383
      7 O          -2.7480   -3.4972   -1.1633 O.3     1  LIG11      -0.4590
      8 N          -5.8553    2.6905   -0.2779 N.3     1  LIG11      -0.1906
      9 N          -6.0196    0.8864   -2.1314 N.pl3   1  LIG11      -0.1891
     10 N          -3.9702    0.7038   -3.1183 N.ar    1  LIG11      -0.2186
     11 N          -2.0373   -0.0780   -1.9846 N.ar    1  LIG11      -0.2008
     12 N          -1.1835   -3.3346   -2.9148 N.ar    1  LIG11      -0.2022
     13 N          -3.5376   -3.1306   -3.2722 N.ar    1  LIG11      -0.2022
     14 C          -4.1601   -0.0665   -0.8129 C.ar    1  LIG11       0.0848
     15 C          -4.6642    0.4767   -1.9910 C.ar    1  LIG11       0.1532
     16 C          -4.9737   -0.3469    0.3872 C.ar    1  LIG11      -0.0094
     17 C          -2.8068   -0.3629   -0.9122 C.ar    1  LIG11       0.2276
     18 C          -6.1697   -1.0833    0.3071 C.ar    1  LIG11      -0.0527
     19 C          -4.5870    0.1315    1.6534 C.ar    1  LIG11      -0.0527
     20 C          -1.1319   -1.8700   -0.1846 C.3     1  LIG11       0.1252
     21 C          -6.9568   -1.3170    1.4401 C.ar    1  LIG11      -0.0472
     22 C          -5.3656   -0.1063    2.7907 C.ar    1  LIG11      -0.0472
     23 C          -2.6662    0.4443   -3.0391 C.ar    1  LIG11       0.1219
     24 C          -1.6389   -3.3163   -0.2816 C.3     1  LIG11       0.1267
     25 C          -6.5502   -0.8264    2.6768 C.ar    1  LIG11       0.0179
     26 C          -2.4609   -3.3355   -2.4964 C.ar    1  LIG11       0.3180
     27 C          -0.9958   -3.0611   -4.2243 C.ar    1  LIG11       0.0483
     28 C          -3.2899   -2.8694   -4.5722 C.ar    1  LIG11       0.0483
     29 C          -2.0235   -2.8108   -5.1045 C.ar    1  LIG11       0.0543
@<TRIPOS>BOND
     1     1    25    1
     2     2    29    1
     3     3     9    1
     4     3     8    1
     5     3     6    2
     6     3     5    2
     7     4    17    1
     8     4    20    1
     9     7    24    1
    10     7    26    1
    11     9    15    1
    12    10    15   ar
    13    10    23   ar
    14    11    17   ar
    15    11    23   ar
    16    12    26   ar
    17    12    27   ar
    18    13    26   ar
    19    13    28   ar
    20    14    15   ar
    21    14    17   ar
    22    16    18   ar
    23    16    19   ar
    24    16    14    1
    25    18    21   ar
    26    19    22   ar
    27    20    24    1
    28    21    25   ar
    29    22    25   ar
    30    27    29   ar
    31    28    29   ar
