@<TRIPOS>MOLECULE
16219006
 44 47 0 0 0
SMALL
GASTEIGER

@<TRIPOS>ATOM
      1 O           3.7044   -0.8540    2.1872 O.2     1  PRO11      -0.2738
      2 O           3.2756    1.2727   -1.4666 O.2     5  ASP55      -0.2735
      3 O           2.1782   -2.0004   -1.7859 O.2     2  VAL22      -0.2738
      4 O          -0.3046    2.8505    1.4262 O.2     4  TRP44      -0.2738
      5 O          -0.2761   -1.1518    1.7814 O.2     3  LEU33      -0.2738
      6 OD1         0.5093    5.1082   -3.4488 O.co2   5  ASP55      -0.5497
      7 OD2        -0.5565    4.4767   -1.5434 O.co2   5  ASP55      -0.5497
      8 N           3.4661    1.9111    0.6899 N.am    1  PRO11      -0.2884
      9 N           4.2874   -1.2237    0.0036 N.am    2  VAL22      -0.3022
     10 N           0.5106    1.9406   -0.5257 N.am    5  ASP55      -0.3021
     11 N           1.2833   -2.7898    0.1719 N.am    3  LEU33      -0.3025
     12 N          -1.0945   -0.2491   -0.1654 N.am    4  TRP44      -0.3022
     13 NE1        -5.6941   -0.3986   -1.2697 N.ar    4  TRP44      -0.3604
     14 CA          4.6129    1.0367    0.9143 C.3     1  PRO11       0.1023
     15 CB          5.2740    1.6047    2.1694 C.3     1  PRO11      -0.0243
     16 CG          4.1186    2.2380    2.9372 C.3     1  PRO11      -0.0350
     17 CD          3.1924    2.7510    1.8435 C.3     1  PRO11       0.0156
     18 C           4.1621   -0.4278    1.1285 C.2     1  PRO11       0.2342
     19 C           2.8724    2.0036   -0.5515 C.2     5  ASP55       0.2369
     20 CA          3.7238   -2.5736   -0.0067 C.3     2  VAL22       0.1017
     21 CA          1.6037    2.8850   -0.7026 C.3     5  ASP55       0.1047
     22 CB          4.5819   -3.5544   -0.8375 C.3     2  VAL22      -0.0197
     23 CA         -0.0803   -2.4747   -0.2342 C.3     3  LEU33       0.0996
     24 C           2.3334   -2.4199   -0.6407 C.2     2  VAL22       0.2342
     25 CB          1.5657    3.5297   -2.0801 C.3     5  ASP55       0.0138
     26 CA         -1.5278    1.0066    0.4583 C.3     4  TRP44       0.1034
     27 CB         -1.0429   -3.6254    0.0728 C.3     3  LEU33      -0.0236
     28 CG         -0.7094   -4.9351   -0.6710 C.3     3  LEU33      -0.0446
     29 C          -0.3715    2.0148    0.5257 C.2     4  TRP44       0.2343
     30 CB         -2.7430    1.5931   -0.2689 C.3     4  TRP44       0.0013
     31 C          -0.4839   -1.2334    0.5707 C.2     3  LEU33       0.2340
     32 CG1         3.9314   -4.9432   -0.9133 C.3     2  VAL22      -0.0605
     33 CG2         5.9888   -3.6983   -0.2475 C.3     2  VAL22      -0.0605
     34 CG         -3.9198    0.6423   -0.3921 C.ar    4  TRP44      -0.0201
     35 CG          0.3931    4.4625   -2.3673 C.2     5  ASP55       0.0440
     36 CD1        -1.6902   -6.0328   -0.2548 C.3     3  LEU33      -0.0626
     37 CD2        -0.7340   -4.7698   -2.1917 C.3     3  LEU33      -0.0626
     38 CD2        -4.3998   -0.3428    0.5449 C.ar    4  TRP44       0.0029
     39 CD1        -4.7563    0.5704   -1.4929 C.ar    4  TRP44       0.0060
     40 CE2        -5.4898   -0.9880   -0.0454 C.ar    4  TRP44       0.0467
     41 CE3        -4.0137   -0.7708    1.8347 C.ar    4  TRP44      -0.0523
     42 CZ2        -6.1896   -2.0319    0.5769 C.ar    4  TRP44      -0.0378
     43 CZ3        -4.6872   -1.8230    2.4643 C.ar    4  TRP44      -0.0611
     44 CH2        -5.7613   -2.4441    1.8416 C.ar    4  TRP44      -0.0598
@<TRIPOS>BOND
     1     1    18    2
     2     2    19    2
     3     3    24    2
     4     4    29    2
     5     5    31    2
     6     6    35   ar
     7     7    35   ar
     8     8    14    1
     9     8    17    1
    10     8    19   am
    11     9    18   am
    12     9    20    1
    13    10    21    1
    14    10    29   am
    15    11    23    1
    16    11    24   am
    17    12    26    1
    18    12    31   am
    19    13    39   ar
    20    13    40   ar
    21    14    15    1
    22    14    18    1
    23    15    16    1
    24    16    17    1
    25    19    21    1
    26    20    22    1
    27    20    24    1
    28    21    25    1
    29    22    32    1
    30    22    33    1
    31    23    27    1
    32    23    31    1
    33    25    35    1
    34    26    29    1
    35    26    30    1
    36    27    28    1
    37    28    36    1
    38    28    37    1
    39    30    34    1
    40    34    38   ar
    41    34    39   ar
    42    38    40   ar
    43    38    41   ar
    44    40    42   ar
    45    41    43   ar
    46    42    44   ar
    47    43    44   ar
@<TRIPOS>MOLECULE
177236
 30 32 0 0 0
SMALL
GASTEIGER

@<TRIPOS>ATOM
      1 O          -3.4821    2.3548    1.2086 O.3     1  LIG11      -0.3632
      2 O          -1.8326   -0.1100   -1.1636 O.3     1  LIG11      -0.4494
      3 O          -0.4083   -0.6425    0.9815 O.co2   1  LIG11      -0.5459
      4 O          -0.9371    1.2769    2.0592 O.co2   1  LIG11      -0.5459
      5 O           1.7097    2.2157   -3.1694 O.3     1  LIG11      -0.4794
      6 O           1.1890   -2.3782   -3.8849 O.3     1  LIG11      -0.4794
      7 N          -0.0505    1.0753   -2.1070 N.ar    1  LIG11      -0.1594
      8 N          -0.3404   -1.2534   -2.4860 N.ar    1  LIG11      -0.1594
      9 C          -3.3712    1.2990    0.2018 C.3     1  LIG11       0.1609
     10 C          -1.8830    0.9188   -0.1277 C.3     1  LIG11       0.1791
     11 C          -4.1030    0.0640    0.7977 C.ar    1  LIG11      -0.0075
     12 C          -4.2082    1.8734   -1.0033 C.ar    1  LIG11      -0.0075
     13 C          -4.7503   -0.8834   -0.0187 C.ar    1  LIG11      -0.0554
     14 C          -3.8351    1.7591   -2.3509 C.ar    1  LIG11      -0.0554
     15 C          -4.1007   -0.1679    2.1857 C.ar    1  LIG11      -0.0554
     16 C          -5.4246    2.5443   -0.7350 C.ar    1  LIG11      -0.0554
     17 C          -1.0253    0.4592    1.0954 C.2     1  LIG11       0.0856
     18 C          -2.7225    3.5358    0.9887 C.3     1  LIG11       0.0382
     19 C          -5.4003   -1.9915    0.5325 C.ar    1  LIG11      -0.0614
     20 C          -4.6304    2.2838   -3.3772 C.ar    1  LIG11      -0.0614
     21 C          -4.7433   -1.2795    2.7367 C.ar    1  LIG11      -0.0614
     22 C          -6.2063    3.0926   -1.7545 C.ar    1  LIG11      -0.0614
     23 C          -5.3997   -2.1873    1.9107 C.ar    1  LIG11      -0.0617
     24 C          -5.8099    2.9584   -3.0800 C.ar    1  LIG11      -0.0617
     25 C          -0.6488   -0.1027   -1.8763 C.ar    1  LIG11       0.3249
     26 C           1.0237    1.0452   -2.9056 C.ar    1  LIG11       0.2240
     27 C           0.7536   -1.2202   -3.2630 C.ar    1  LIG11       0.2240
     28 C           1.4760   -0.0850   -3.5264 C.ar    1  LIG11       0.0617
     29 C           1.3359    3.2731   -2.2859 C.3     1  LIG11       0.0804
     30 C           0.5777   -3.5451   -3.3393 C.3     1  LIG11       0.0804
@<TRIPOS>BOND
     1     1     9    1
     2     1    18    1
     3     2    10    1
     4     2    25    1
     5     3    17   ar
     6     4    17   ar
     7     5    26    1
     8     5    29    1
     9     6    27    1
    10     6    30    1
    11     7    25   ar
    12     7    26   ar
    13     8    25   ar
    14     8    27   ar
    15     9    10    1
    16     9    11    1
    17     9    12    1
    18    10    17    1
    19    11    13   ar
    20    11    15   ar
    21    12    14   ar
    22    12    16   ar
    23    13    19   ar
    24    14    20   ar
    25    15    21   ar
    26    16    22   ar
    27    19    23   ar
    28    20    24   ar
    29    21    23   ar
    30    22    24   ar
    31    26    28   ar
    32    27    28   ar
