@<TRIPOS>MOLECULE
16219006
 44 47 0 0 0
SMALL
GASTEIGER

@<TRIPOS>ATOM
      1 O           4.5485   -0.9717    2.1928 O.2     1  PRO11      -0.2738
      2 O           3.3858    1.2213   -1.4248 O.2     5  ASP55      -0.2735
      3 O           1.9003   -1.6917   -1.7321 O.2     2  VAL22      -0.2738
      4 O           0.0522    2.4408    1.5695 O.2     4  TRP44      -0.2738
      5 O          -0.5989   -1.3451    1.7792 O.2     3  LEU33      -0.2738
      6 OD1         0.6458    5.5018   -2.1487 O.co2   5  ASP55      -0.5497
      7 OD2        -0.4878    3.5804   -2.6685 O.co2   5  ASP55      -0.5497
      8 N           3.5427    1.9040    0.7162 N.am    1  PRO11      -0.2884
      9 N           4.1061   -1.0169   -0.0518 N.am    2  VAL22      -0.3022
     10 N           0.4985    1.9417   -0.6340 N.am    5  ASP55      -0.3021
     11 N           1.1369   -2.8662    0.0743 N.am    3  LEU33      -0.3025
     12 N          -1.1439   -0.3005   -0.2013 N.am    4  TRP44      -0.3022
     13 NE1        -3.5693    5.0924    0.4996 N.ar    4  TRP44      -0.3604
     14 CA          4.7667    1.1286    0.9430 C.3     1  PRO11       0.1023
     15 CB          5.3753    1.7517    2.2029 C.3     1  PRO11      -0.0243
     16 CG          4.1607    2.2689    2.9619 C.3     1  PRO11      -0.0350
     17 CD          3.2550    2.7701    1.8489 C.3     1  PRO11       0.0156
     18 C           4.4570   -0.3779    1.1198 C.2     1  PRO11       0.2342
     19 C           2.9410    1.9502   -0.5253 C.2     5  ASP55       0.2369
     20 CA          3.5526   -2.3626   -0.0675 C.3     2  VAL22       0.1017
     21 CA          1.6755    2.8203   -0.7360 C.3     5  ASP55       0.1047
     22 CB          4.4297   -3.3745   -0.8393 C.3     2  VAL22      -0.0197
     23 CA         -0.2543   -2.5829   -0.2737 C.3     3  LEU33       0.0996
     24 C           2.1349   -2.2633   -0.6685 C.2     2  VAL22       0.2342
     25 CB          1.7785    3.4399   -2.1294 C.3     5  ASP55       0.0138
     26 CA         -1.5068    0.9768    0.4372 C.3     4  TRP44       0.1034
     27 CB         -1.1559   -3.7742    0.0754 C.3     3  LEU33      -0.0236
     28 CG         -2.6464   -3.5628   -0.2666 C.3     3  LEU33      -0.0446
     29 C          -0.2387    1.8498    0.5318 C.2     4  TRP44       0.2343
     30 CB         -2.6427    1.6411   -0.3463 C.3     4  TRP44       0.0013
     31 C          -0.6714   -1.3528    0.5515 C.2     3  LEU33       0.2340
     32 CG1         5.7356   -3.6471   -0.0850 C.3     2  VAL22      -0.0605
     33 CG2         4.7550   -2.9539   -2.2766 C.3     2  VAL22      -0.0605
     34 CG         -3.1490    2.9179    0.2450 C.ar    4  TRP44      -0.0201
     35 CG          0.5269    4.2646   -2.3371 C.2     5  ASP55       0.0440
     36 CD1        -2.8780   -3.3316   -1.7600 C.3     3  LEU33      -0.0626
     37 CD2        -3.4624   -4.7682    0.2042 C.3     3  LEU33      -0.0626
     38 CD2        -3.8667    3.1073    1.4696 C.ar    4  TRP44       0.0029
     39 CD1        -2.9990    4.1659   -0.3244 C.ar    4  TRP44       0.0060
     40 CE2        -4.1192    4.4753    1.5986 C.ar    4  TRP44       0.0467
     41 CE3        -4.3169    2.2458    2.4918 C.ar    4  TRP44      -0.0523
     42 CZ2        -4.7998    5.0226    2.6930 C.ar    4  TRP44      -0.0378
     43 CZ3        -4.9919    2.7779    3.5977 C.ar    4  TRP44      -0.0611
     44 CH2        -5.2301    4.1465    3.6934 C.ar    4  TRP44      -0.0598
@<TRIPOS>BOND
     1     1    18    2
     2     2    19    2
     3     3    24    2
     4     4    29    2
     5     5    31    2
     6     6    35   ar
     7     7    35   ar
     8     8    14    1
     9     8    17    1
    10     8    19   am
    11     9    18   am
    12     9    20    1
    13    10    21    1
    14    10    29   am
    15    11    23    1
    16    11    24   am
    17    12    26    1
    18    12    31   am
    19    13    39   ar
    20    13    40   ar
    21    14    15    1
    22    14    18    1
    23    15    16    1
    24    16    17    1
    25    19    21    1
    26    20    22    1
    27    20    24    1
    28    21    25    1
    29    22    32    1
    30    22    33    1
    31    23    27    1
    32    23    31    1
    33    25    35    1
    34    26    29    1
    35    26    30    1
    36    27    28    1
    37    28    36    1
    38    28    37    1
    39    30    34    1
    40    34    38   ar
    41    34    39   ar
    42    38    40   ar
    43    38    41   ar
    44    40    42   ar
    45    41    43   ar
    46    42    44   ar
    47    43    44   ar
@<TRIPOS>MOLECULE
*****
 39 42 0 0 0
SMALL
GASTEIGER

@<TRIPOS>ATOM
      1 C           2.7978   -0.5675    3.1368 C.ar    1  LIG11       0.0483
      2 C           2.7804   -1.7532    3.8328 C.ar    1  LIG11       0.0543
      3 C           1.7086   -1.9302    4.6768 C.ar    1  LIG11       0.0483
      4 N           0.7270   -1.0165    4.8386 N.ar    1  LIG11      -0.2022
      5 N           1.8432    0.3794    3.2560 N.ar    1  LIG11      -0.2022
      6 C          -3.8629    5.1834    2.0714 C.ar    1  LIG11      -0.0504
      7 C          -3.1196    4.0517    1.7329 C.ar    1  LIG11      -0.0583
      8 C          -3.5745    2.7766    2.0836 C.ar    1  LIG11      -0.0535
      9 C          -4.7777    2.5937    2.7901 C.ar    1  LIG11      -0.0094
     10 C          -5.5455    3.7367    3.0641 C.ar    1  LIG11      -0.0535
     11 C          -5.0964    5.0138    2.7070 C.ar    1  LIG11      -0.0583
     12 C          -4.0453   -1.0854   -0.2366 C.ar    1  LIG11      -0.0561
     13 C          -4.9988   -0.0751   -0.0861 C.ar    1  LIG11      -0.0348
     14 C          -6.2363   -0.3705    0.4799 C.ar    1  LIG11       0.1086
     15 C          -6.5538   -1.6818    0.8289 C.ar    1  LIG11      -0.0348
     16 C          -5.5884   -2.6843    0.6852 C.ar    1  LIG11      -0.0561
     17 C          -3.2434   -3.5255    0.0683 C.3     1  LIG11       0.0132
     18 C          -4.3036   -2.4062    0.1747 C.ar    1  LIG11      -0.0394
     19 C          -3.6632   -4.4963   -1.0543 C.3     1  LIG11      -0.0537
     20 C          -3.0757   -4.2743    1.4282 C.3     1  LIG11       0.0533
     21 C          -1.8374   -2.9808   -0.2906 C.3     1  LIG11      -0.0537
     22 O          -4.1141   -5.2106    1.7090 O.3     1  LIG11      -0.3942
     23 S          -7.4058    0.9364    0.7623 S.O2    1  LIG11       0.0735
     24 O          -6.8749    2.1460    0.1698 O.2     1  LIG11      -0.1499
     25 O          -8.7084    0.4390    0.3710 O.2     1  LIG11      -0.1499
     26 N          -7.4853    1.1644    2.4356 N.pl3   1  LIG11      -0.1988
     27 C          -5.1567    1.2717    3.3266 C.ar    1  LIG11       0.0847
     28 C          -4.2857    0.5088    4.1056 C.ar    1  LIG11       0.2276
     29 N          -4.5902   -0.6725    4.6830 N.ar    1  LIG11      -0.2008
     30 C          -5.8340   -1.1088    4.4925 C.ar    1  LIG11       0.1219
     31 N          -6.7784   -0.4803    3.7900 N.ar    1  LIG11      -0.2186
     32 C          -6.4063    0.6806    3.2174 C.ar    1  LIG11       0.1524
     33 C          -3.3596    6.5589    1.7503 C.3     1  LIG11      -0.0397
     34 O          -3.0256    1.0281    4.3365 O.3     1  LIG11      -0.4724
     35 C          -2.1824    0.2317    5.1744 C.3     1  LIG11       0.1252
     36 C          -0.8931    1.0178    5.4124 C.3     1  LIG11       0.1267
     37 O          -0.1038    1.0972    4.2215 O.3     1  LIG11      -0.4590
     38 C           0.8514    0.1136    4.1195 C.ar    1  LIG11       0.3180
     39 BR          4.1286   -3.0446    3.6447 Br      1  LIG11      -0.0472
@<TRIPOS>BOND
     1     1     2   ar
     2     2     3   ar
     3     2    39    1
     4     3     4   ar
     5     4    38   ar
     6     5     1   ar
     7     6     7   ar
     8     6    33    1
     9     7     8   ar
    10     8     9   ar
    11     9    10   ar
    12    10    11   ar
    13    11     6   ar
    14    12    13   ar
    15    13    14   ar
    16    14    15   ar
    17    15    16   ar
    18    16    18   ar
    19    17    18    1
    20    17    21    1
    21    17    20    1
    22    17    19    1
    23    18    12   ar
    24    20    22    1
    25    23    26    1
    26    23    25    2
    27    23    24    2
    28    23    14    1
    29    26    32    1
    30    27    28   ar
    31    27     9    1
    32    28    29   ar
    33    29    30   ar
    34    30    31   ar
    35    31    32   ar
    36    32    27   ar
    37    34    35    1
    38    34    28    1
    39    35    36    1
    40    36    37    1
    41    37    38    1
    42    38     5   ar
