@<TRIPOS>MOLECULE
16219006
 44 47 0 0 0
SMALL
GASTEIGER

@<TRIPOS>ATOM
      1 O           4.1091   -0.9340    2.2259 O.2     1  PRO11      -0.2738
      2 O           3.3174    1.2434   -1.4275 O.2     5  ASP55      -0.2735
      3 O           2.0085   -1.7668   -1.7645 O.2     2  VAL22      -0.2738
      4 O          -0.3062    2.7359    1.4969 O.2     4  TRP44      -0.2738
      5 O          -0.2716   -1.2156    1.7426 O.2     3  LEU33      -0.2738
      6 OD1         0.6349    5.1657   -3.3117 O.co2   5  ASP55      -0.5497
      7 OD2        -0.6294    4.2654   -1.6462 O.co2   5  ASP55      -0.5497
      8 N           3.4713    1.8905    0.7298 N.am    1  PRO11      -0.2884
      9 N           4.2015   -1.1060   -0.0573 N.am    2  VAL22      -0.3022
     10 N           0.5097    1.8373   -0.4618 N.am    5  ASP55      -0.3021
     11 N           1.2122   -2.8733    0.0739 N.am    3  LEU33      -0.3025
     12 N          -1.1580   -0.3089   -0.1712 N.am    4  TRP44      -0.3022
     13 NE1        -5.6763   -0.5473    0.0577 N.ar    4  TRP44      -0.3604
     14 CA          4.6707    1.0849    0.9550 C.3     1  PRO11       0.1023
     15 CB          5.2817    1.6811    2.2237 C.3     1  PRO11      -0.0243
     16 CG          4.0766    2.2223    2.9845 C.3     1  PRO11      -0.0350
     17 CD          3.1568    2.7202    1.8800 C.3     1  PRO11       0.0156
     18 C           4.3080   -0.4094    1.1327 C.2     1  PRO11       0.2342
     19 C           2.8794    1.9588   -0.5141 C.2     5  ASP55       0.2369
     20 CA          3.6371   -2.4544   -0.0924 C.3     2  VAL22       0.1017
     21 CA          1.5852    2.7976   -0.6743 C.3     5  ASP55       0.1047
     22 CB          4.5348   -3.4497   -0.8629 C.3     2  VAL22      -0.0197
     23 CA         -0.1706   -2.5498   -0.2732 C.3     3  LEU33       0.0996
     24 C           2.2239   -2.3237   -0.6924 C.2     2  VAL22       0.2342
     25 CB          1.5399    3.3933   -2.0759 C.3     5  ASP55       0.0138
     26 CA         -1.5747    0.9474    0.4675 C.3     4  TRP44       0.1034
     27 CB         -1.1082   -3.7046    0.0930 C.3     3  LEU33      -0.0236
     28 CG         -2.5794   -3.4787   -0.3113 C.3     3  LEU33      -0.0446
     29 C          -0.3813    1.9120    0.5863 C.2     4  TRP44       0.2343
     30 CB         -2.7108    1.6219   -0.3201 C.3     4  TRP44       0.0013
     31 C          -0.5266   -1.2967    0.5418 C.2     3  LEU33       0.2340
     32 CG1         4.7906   -3.0742   -2.3246 C.3     2  VAL22      -0.0605
     33 CG2         3.9768   -4.8760   -0.7849 C.3     2  VAL22      -0.0605
     34 CG         -3.9211    0.7305   -0.4553 C.ar    4  TRP44      -0.0201
     35 CG          0.4068    4.3731   -2.3531 C.2     5  ASP55       0.0440
     36 CD1        -2.7486   -3.3175   -1.8231 C.3     3  LEU33      -0.0626
     37 CD2        -3.4387   -4.6435    0.1817 C.3     3  LEU33      -0.0626
     38 CD2        -4.4613    0.1781   -1.6633 C.ar    4  TRP44       0.0029
     39 CD1        -4.7114    0.2682    0.5802 C.ar    4  TRP44       0.0060
     40 CE2        -5.5471   -0.6248   -1.3089 C.ar    4  TRP44       0.0467
     41 CE3        -4.1238    0.2780   -3.0288 C.ar    4  TRP44      -0.0523
     42 CZ2        -6.3054   -1.3380   -2.2461 C.ar    4  TRP44      -0.0378
     43 CZ3        -4.8723   -0.4267   -3.9805 C.ar    4  TRP44      -0.0611
     44 CH2        -5.9453   -1.2245   -3.5921 C.ar    4  TRP44      -0.0598
@<TRIPOS>BOND
     1     1    18    2
     2     2    19    2
     3     3    24    2
     4     4    29    2
     5     5    31    2
     6     6    35   ar
     7     7    35   ar
     8     8    14    1
     9     8    17    1
    10     8    19   am
    11     9    18   am
    12     9    20    1
    13    10    21    1
    14    10    29   am
    15    11    23    1
    16    11    24   am
    17    12    26    1
    18    12    31   am
    19    13    39   ar
    20    13    40   ar
    21    14    15    1
    22    14    18    1
    23    15    16    1
    24    16    17    1
    25    19    21    1
    26    20    22    1
    27    20    24    1
    28    21    25    1
    29    22    32    1
    30    22    33    1
    31    23    27    1
    32    23    31    1
    33    25    35    1
    34    26    29    1
    35    26    30    1
    36    27    28    1
    37    28    36    1
    38    28    37    1
    39    30    34    1
    40    34    38   ar
    41    34    39   ar
    42    38    40   ar
    43    38    41   ar
    44    40    42   ar
    45    41    43   ar
    46    42    44   ar
    47    43    44   ar
@<TRIPOS>MOLECULE
2-[[2-[2-butyl-4-[(Z)-2-carboxy-3-(6-methoxy-1,3-benzodioxol-5-yl)prop-1-enyl]pyrazol-3-yl]-5-methoxyphenoxy]methyl]benzoic acid
 45 49 0 0 0
SMALL
GASTEIGER

@<TRIPOS>ATOM
      1 O          -4.1690    2.0613   -2.8181 O.3     1  LIG11      -0.4866
      2 O          -2.7544    0.6893    6.2544 O.3     1  LIG11      -0.4526
      3 O          -1.2136    2.3880    7.0064 O.3     1  LIG11      -0.4525
      4 O           0.9449    2.5445    2.6850 O.3     1  LIG11      -0.4947
      5 O          -5.4805   -0.3422   -6.5802 O.3     1  LIG11      -0.4950
      6 O           0.1441    2.6619   -0.4337 O.co2   1  LIG11      -0.5449
      7 O          -1.4002    3.9796    0.6237 O.co2   1  LIG11      -0.5449
      8 O          -5.4815    4.5246   -4.8537 O.co2   1  LIG11      -0.5446
      9 O          -7.0217    3.6538   -6.2514 O.co2   1  LIG11      -0.5446
     10 N          -4.6738   -1.5340   -0.2087 N.ar    1  LIG11      -0.2630
     11 N          -4.8786   -1.2950    1.1047 N.ar    1  LIG11      -0.1785
     12 C          -4.4981   -0.3560   -0.9486 C.ar    1  LIG11       0.0795
     13 C          -4.4730   -2.9147   -0.6218 C.3     1  LIG11       0.0422
     14 C          -3.3023   -3.6279    0.0676 C.3     1  LIG11      -0.0336
     15 C          -3.7802    0.3788    0.0109 C.ar    1  LIG11       0.0207
     16 C          -4.8743   -0.2367   -2.3951 C.ar    1  LIG11       0.0425
     17 C          -1.9433   -3.1197   -0.4221 C.3     1  LIG11      -0.0542
     18 C          -4.2597   -0.1233    1.2436 C.ar    1  LIG11       0.0571
     19 C          -2.8535    1.4614   -0.0969 C.2     1  LIG11      -0.0459
     20 C          -1.0119    0.7301    1.5969 C.3     1  LIG11       0.0029
     21 C          -4.6181    0.8501   -3.2416 C.ar    1  LIG11       0.1336
     22 C          -1.7115    1.6351    0.6125 C.2     1  LIG11      -0.0200
     23 C          -0.9982    1.1991    3.0492 C.ar    1  LIG11       0.0023
     24 C          -5.6339   -1.2662   -2.9980 C.ar    1  LIG11      -0.0456
     25 C          -0.7995   -3.9304    0.1662 C.3     1  LIG11      -0.0652
     26 C          -4.8028    0.7589   -4.6366 C.ar    1  LIG11       0.0224
     27 C          -0.0726    2.1658    3.5218 C.ar    1  LIG11       0.1273
     28 C          -1.9228    0.6556    3.9616 C.ar    1  LIG11      -0.0092
     29 C          -5.8704   -1.3470   -4.3796 C.ar    1  LIG11      -0.0191
     30 C          -1.9307    1.1206    5.2604 C.ar    1  LIG11       0.1667
     31 C          -5.3987   -0.3528   -5.2180 C.ar    1  LIG11       0.1236
     32 C          -1.0526    2.0846    5.6891 C.ar    1  LIG11       0.1697
     33 C          -0.1027    2.6181    4.8499 C.ar    1  LIG11       0.0258
     34 C          -0.9168    2.8845    0.2182 C.2     1  LIG11       0.0680
     35 C          -5.1803    2.9947   -2.3747 C.3     1  LIG11       0.1153
     36 C          -2.3121    1.5190    7.3453 C.3     1  LIG11       0.2332
     37 C          -6.6639    2.8208   -2.7017 C.ar    1  LIG11      -0.0016
     38 C          -7.2622    3.2139   -3.9236 C.ar    1  LIG11       0.0037
     39 C          -7.4896    2.2813   -1.6862 C.ar    1  LIG11      -0.0547
     40 C           1.1519    3.9552    2.6318 C.3     1  LIG11       0.0788
     41 C          -8.6599    3.0545   -4.0688 C.ar    1  LIG11      -0.0525
     42 C          -8.8695    2.1529   -1.8512 C.ar    1  LIG11      -0.0614
     43 C          -6.2740   -1.3495   -7.1857 C.3     1  LIG11       0.0788
     44 C          -9.4575    2.5427   -3.0463 C.ar    1  LIG11      -0.0611
     45 C          -6.5137    3.8293   -5.0950 C.2     1  LIG11       0.0720
@<TRIPOS>BOND
     1     1    35    1
     2     1    21    1
     3     2    36    1
     4     2    30    1
     5     3    32    1
     6     3    36    1
     7     4    27    1
     8     4    40    1
     9     5    31    1
    10     5    43    1
    11     6    34   ar
    12     7    34   ar
    13     8    45   ar
    14     9    45   ar
    15    10    11   ar
    16    10    12   ar
    17    10    13    1
    18    11    18   ar
    19    12    15   ar
    20    13    14    1
    21    14    17    1
    22    15    18   ar
    23    15    19    1
    24    16    24   ar
    25    16    21   ar
    26    16    12    1
    27    17    25    1
    28    19    22    2
    29    20    22    1
    30    20    23    1
    31    21    26   ar
    32    22    34    1
    33    23    28   ar
    34    23    27   ar
    35    24    29   ar
    36    26    31   ar
    37    27    33   ar
    38    28    30   ar
    39    29    31   ar
    40    30    32   ar
    41    32    33   ar
    42    35    37    1
    43    37    39   ar
    44    37    38   ar
    45    38    41   ar
    46    38    45    1
    47    39    42   ar
    48    41    44   ar
    49    42    44   ar
