@<TRIPOS>MOLECULE
16219006
 44 47 0 0 0
SMALL
GASTEIGER

@<TRIPOS>ATOM
      1 O           4.5485   -0.9717    2.1928 O.2     1  PRO11      -0.2738
      2 O           3.3858    1.2213   -1.4248 O.2     5  ASP55      -0.2735
      3 O           1.9003   -1.6917   -1.7321 O.2     2  VAL22      -0.2738
      4 O           0.0522    2.4408    1.5695 O.2     4  TRP44      -0.2738
      5 O          -0.5989   -1.3451    1.7792 O.2     3  LEU33      -0.2738
      6 OD1         0.6458    5.5018   -2.1487 O.co2   5  ASP55      -0.5497
      7 OD2        -0.4878    3.5804   -2.6685 O.co2   5  ASP55      -0.5497
      8 N           3.5427    1.9040    0.7162 N.am    1  PRO11      -0.2884
      9 N           4.1061   -1.0169   -0.0518 N.am    2  VAL22      -0.3022
     10 N           0.4985    1.9417   -0.6340 N.am    5  ASP55      -0.3021
     11 N           1.1369   -2.8662    0.0743 N.am    3  LEU33      -0.3025
     12 N          -1.1439   -0.3005   -0.2013 N.am    4  TRP44      -0.3022
     13 NE1        -3.5693    5.0924    0.4996 N.ar    4  TRP44      -0.3604
     14 CA          4.7667    1.1286    0.9430 C.3     1  PRO11       0.1023
     15 CB          5.3753    1.7517    2.2029 C.3     1  PRO11      -0.0243
     16 CG          4.1607    2.2689    2.9619 C.3     1  PRO11      -0.0350
     17 CD          3.2550    2.7701    1.8489 C.3     1  PRO11       0.0156
     18 C           4.4570   -0.3779    1.1198 C.2     1  PRO11       0.2342
     19 C           2.9410    1.9502   -0.5253 C.2     5  ASP55       0.2369
     20 CA          3.5526   -2.3626   -0.0675 C.3     2  VAL22       0.1017
     21 CA          1.6755    2.8203   -0.7360 C.3     5  ASP55       0.1047
     22 CB          4.4297   -3.3745   -0.8393 C.3     2  VAL22      -0.0197
     23 CA         -0.2543   -2.5829   -0.2737 C.3     3  LEU33       0.0996
     24 C           2.1349   -2.2633   -0.6685 C.2     2  VAL22       0.2342
     25 CB          1.7785    3.4399   -2.1294 C.3     5  ASP55       0.0138
     26 CA         -1.5068    0.9768    0.4372 C.3     4  TRP44       0.1034
     27 CB         -1.1559   -3.7742    0.0754 C.3     3  LEU33      -0.0236
     28 CG         -2.6464   -3.5628   -0.2666 C.3     3  LEU33      -0.0446
     29 C          -0.2387    1.8498    0.5318 C.2     4  TRP44       0.2343
     30 CB         -2.6427    1.6411   -0.3463 C.3     4  TRP44       0.0013
     31 C          -0.6714   -1.3528    0.5515 C.2     3  LEU33       0.2340
     32 CG1         5.7356   -3.6471   -0.0850 C.3     2  VAL22      -0.0605
     33 CG2         4.7550   -2.9539   -2.2766 C.3     2  VAL22      -0.0605
     34 CG         -3.1490    2.9179    0.2450 C.ar    4  TRP44      -0.0201
     35 CG          0.5269    4.2646   -2.3371 C.2     5  ASP55       0.0440
     36 CD1        -2.8780   -3.3316   -1.7600 C.3     3  LEU33      -0.0626
     37 CD2        -3.4624   -4.7682    0.2042 C.3     3  LEU33      -0.0626
     38 CD2        -3.8667    3.1073    1.4696 C.ar    4  TRP44       0.0029
     39 CD1        -2.9990    4.1659   -0.3244 C.ar    4  TRP44       0.0060
     40 CE2        -4.1192    4.4753    1.5986 C.ar    4  TRP44       0.0467
     41 CE3        -4.3169    2.2458    2.4918 C.ar    4  TRP44      -0.0523
     42 CZ2        -4.7998    5.0226    2.6930 C.ar    4  TRP44      -0.0378
     43 CZ3        -4.9919    2.7779    3.5977 C.ar    4  TRP44      -0.0611
     44 CH2        -5.2301    4.1465    3.6934 C.ar    4  TRP44      -0.0598
@<TRIPOS>BOND
     1     1    18    2
     2     2    19    2
     3     3    24    2
     4     4    29    2
     5     5    31    2
     6     6    35   ar
     7     7    35   ar
     8     8    14    1
     9     8    17    1
    10     8    19   am
    11     9    18   am
    12     9    20    1
    13    10    21    1
    14    10    29   am
    15    11    23    1
    16    11    24   am
    17    12    26    1
    18    12    31   am
    19    13    39   ar
    20    13    40   ar
    21    14    15    1
    22    14    18    1
    23    15    16    1
    24    16    17    1
    25    19    21    1
    26    20    22    1
    27    20    24    1
    28    21    25    1
    29    22    32    1
    30    22    33    1
    31    23    27    1
    32    23    31    1
    33    25    35    1
    34    26    29    1
    35    26    30    1
    36    27    28    1
    37    28    36    1
    38    28    37    1
    39    30    34    1
    40    34    38   ar
    41    34    39   ar
    42    38    40   ar
    43    38    41   ar
    44    40    42   ar
    45    41    43   ar
    46    42    44   ar
    47    43    44   ar
@<TRIPOS>MOLECULE
46174111
 29 32 0 0 0
SMALL
GASTEIGER

@<TRIPOS>ATOM
      1 CL          2.3837    1.1194    5.4603 Cl      1  LIG11      -0.0762
      2 S          -1.0847    1.0158    6.5513 S.O2    1  LIG11       0.0758
      3 S          -5.2334    2.0809    6.8533 S.2     1  LIG11      -0.0918
      4 O          -5.0267    6.0719    3.0911 O.3     1  LIG11      -0.4526
      5 O          -3.6242    5.9261    1.1346 O.3     1  LIG11      -0.4526
      6 O          -3.2677   -0.1891    4.4570 O.2     1  LIG11      -0.2911
      7 O          -0.9270   -0.0482    7.5180 O.2     1  LIG11      -0.1499
      8 O          -0.3597    2.2630    6.6776 O.2     1  LIG11      -0.1499
      9 O          -0.5153    1.4965    2.8987 O.2     1  LIG11      -0.3364
     10 N          -0.8574    0.3601    5.0274 N.pl3   1  LIG11      -0.1821
     11 N           0.4757    2.1821    2.2206 N.ar    1  LIG11      -0.0798
     12 C          -4.6849    2.4002    3.0063 C.ar    1  LIG11      -0.0333
     13 C          -5.1055    1.1805    3.8012 C.3     1  LIG11       0.0366
     14 C          -3.8569    2.3153    1.8508 C.ar    1  LIG11      -0.0432
     15 C          -2.7255    1.5426    6.8532 C.ar    1  LIG11       0.1261
     16 C          -3.8593    1.4033    6.0648 C.ar    1  LIG11       0.0814
     17 C          -5.1101    3.6659    3.4604 C.ar    1  LIG11      -0.0123
     18 C          -4.0276    0.7269    4.7846 C.2     1  LIG11       0.1759
     19 C          -4.7034    4.7897    2.7753 C.ar    1  LIG11       0.1665
     20 C          -3.9056    4.7069    1.6653 C.ar    1  LIG11       0.1665
     21 C          -3.4749    3.4938    1.1776 C.ar    1  LIG11      -0.0130
     22 C          -3.4200    1.0100    1.2379 C.3     1  LIG11      -0.0393
     23 C          -3.0074    2.2402    8.0805 C.ar    1  LIG11      -0.0273
     24 C          -4.3239    6.7890    2.0544 C.3     1  LIG11       0.2332
     25 C          -4.3284    2.5942    8.1976 C.ar    1  LIG11      -0.0217
     26 C          -0.0616    1.1118    4.1242 C.ar    1  LIG11       0.2554
     27 C           1.2635    1.4740    4.2345 C.ar    1  LIG11       0.1262
     28 C           1.5457    2.1584    3.0271 C.ar    1  LIG11       0.1009
     29 C           2.8228    2.7602    2.5789 C.3     1  LIG11      -0.0176
@<TRIPOS>BOND
     1     1    27    1
     2     2    10    1
     3     2    15    1
     4     2     8    2
     5     2     7    2
     6     3    16   ar
     7     3    25   ar
     8     4    24    1
     9     4    19    1
    10     5    20    1
    11     5    24    1
    12     6    18    2
    13     9    11   ar
    14     9    26   ar
    15    10    26    1
    16    11    28   ar
    17    12    17   ar
    18    12    14   ar
    19    13    18    1
    20    13    12    1
    21    14    21   ar
    22    14    22    1
    23    15    23   ar
    24    15    16   ar
    25    16    18    1
    26    17    19   ar
    27    19    20   ar
    28    20    21   ar
    29    23    25   ar
    30    26    27   ar
    31    27    28   ar
    32    28    29    1
