@<TRIPOS>MOLECULE
16219006
 44 47 0 0 0
SMALL
GASTEIGER

@<TRIPOS>ATOM
      1 O           3.7044   -0.8540    2.1872 O.2     1  PRO11      -0.2738
      2 O           3.2756    1.2727   -1.4666 O.2     5  ASP55      -0.2735
      3 O           2.1782   -2.0004   -1.7859 O.2     2  VAL22      -0.2738
      4 O          -0.3046    2.8505    1.4262 O.2     4  TRP44      -0.2738
      5 O          -0.2761   -1.1518    1.7814 O.2     3  LEU33      -0.2738
      6 OD1         0.5093    5.1082   -3.4488 O.co2   5  ASP55      -0.5497
      7 OD2        -0.5565    4.4767   -1.5434 O.co2   5  ASP55      -0.5497
      8 N           3.4661    1.9111    0.6899 N.am    1  PRO11      -0.2884
      9 N           4.2874   -1.2237    0.0036 N.am    2  VAL22      -0.3022
     10 N           0.5106    1.9406   -0.5257 N.am    5  ASP55      -0.3021
     11 N           1.2833   -2.7898    0.1719 N.am    3  LEU33      -0.3025
     12 N          -1.0945   -0.2491   -0.1654 N.am    4  TRP44      -0.3022
     13 NE1        -5.6941   -0.3986   -1.2697 N.ar    4  TRP44      -0.3604
     14 CA          4.6129    1.0367    0.9143 C.3     1  PRO11       0.1023
     15 CB          5.2740    1.6047    2.1694 C.3     1  PRO11      -0.0243
     16 CG          4.1186    2.2380    2.9372 C.3     1  PRO11      -0.0350
     17 CD          3.1924    2.7510    1.8435 C.3     1  PRO11       0.0156
     18 C           4.1621   -0.4278    1.1285 C.2     1  PRO11       0.2342
     19 C           2.8724    2.0036   -0.5515 C.2     5  ASP55       0.2369
     20 CA          3.7238   -2.5736   -0.0067 C.3     2  VAL22       0.1017
     21 CA          1.6037    2.8850   -0.7026 C.3     5  ASP55       0.1047
     22 CB          4.5819   -3.5544   -0.8375 C.3     2  VAL22      -0.0197
     23 CA         -0.0803   -2.4747   -0.2342 C.3     3  LEU33       0.0996
     24 C           2.3334   -2.4199   -0.6407 C.2     2  VAL22       0.2342
     25 CB          1.5657    3.5297   -2.0801 C.3     5  ASP55       0.0138
     26 CA         -1.5278    1.0066    0.4583 C.3     4  TRP44       0.1034
     27 CB         -1.0429   -3.6254    0.0728 C.3     3  LEU33      -0.0236
     28 CG         -0.7094   -4.9351   -0.6710 C.3     3  LEU33      -0.0446
     29 C          -0.3715    2.0148    0.5257 C.2     4  TRP44       0.2343
     30 CB         -2.7430    1.5931   -0.2689 C.3     4  TRP44       0.0013
     31 C          -0.4839   -1.2334    0.5707 C.2     3  LEU33       0.2340
     32 CG1         3.9314   -4.9432   -0.9133 C.3     2  VAL22      -0.0605
     33 CG2         5.9888   -3.6983   -0.2475 C.3     2  VAL22      -0.0605
     34 CG         -3.9198    0.6423   -0.3921 C.ar    4  TRP44      -0.0201
     35 CG          0.3931    4.4625   -2.3673 C.2     5  ASP55       0.0440
     36 CD1        -1.6902   -6.0328   -0.2548 C.3     3  LEU33      -0.0626
     37 CD2        -0.7340   -4.7698   -2.1917 C.3     3  LEU33      -0.0626
     38 CD2        -4.3998   -0.3428    0.5449 C.ar    4  TRP44       0.0029
     39 CD1        -4.7563    0.5704   -1.4929 C.ar    4  TRP44       0.0060
     40 CE2        -5.4898   -0.9880   -0.0454 C.ar    4  TRP44       0.0467
     41 CE3        -4.0137   -0.7708    1.8347 C.ar    4  TRP44      -0.0523
     42 CZ2        -6.1896   -2.0319    0.5769 C.ar    4  TRP44      -0.0378
     43 CZ3        -4.6872   -1.8230    2.4643 C.ar    4  TRP44      -0.0611
     44 CH2        -5.7613   -2.4441    1.8416 C.ar    4  TRP44      -0.0598
@<TRIPOS>BOND
     1     1    18    2
     2     2    19    2
     3     3    24    2
     4     4    29    2
     5     5    31    2
     6     6    35   ar
     7     7    35   ar
     8     8    14    1
     9     8    17    1
    10     8    19   am
    11     9    18   am
    12     9    20    1
    13    10    21    1
    14    10    29   am
    15    11    23    1
    16    11    24   am
    17    12    26    1
    18    12    31   am
    19    13    39   ar
    20    13    40   ar
    21    14    15    1
    22    14    18    1
    23    15    16    1
    24    16    17    1
    25    19    21    1
    26    20    22    1
    27    20    24    1
    28    21    25    1
    29    22    32    1
    30    22    33    1
    31    23    27    1
    32    23    31    1
    33    25    35    1
    34    26    29    1
    35    26    30    1
    36    27    28    1
    37    28    36    1
    38    28    37    1
    39    30    34    1
    40    34    38   ar
    41    34    39   ar
    42    38    40   ar
    43    38    41   ar
    44    40    42   ar
    45    41    43   ar
    46    42    44   ar
    47    43    44   ar
@<TRIPOS>MOLECULE
01012527H
 38 40 0 0 0
SMALL
GASTEIGER

@<TRIPOS>ATOM
      1 C          -1.9655   -0.9625   -0.8904 C.3     1  LIG11       0.0531
      2 C          -0.8619   -1.8067   -0.2675 C.3     1  LIG11      -0.0111
      3 C          -2.5960   -0.1375    0.2267 C.3     1  LIG11       0.0375
      4 C          -1.1621   -0.1420   -1.8907 C.2     1  LIG11       0.0509
      5 N          -0.4440   -0.9921    0.9980 N.3     1  LIG11       0.2448
      6 C          -1.2896   -3.2158    0.2204 C.3     1  LIG11      -0.0039
      7 C          -3.8452   -0.7975    0.8011 C.ar    1  LIG11      -0.0313
      8 C          -1.4328    0.1404    1.1775 C.3     1  LIG11      -0.0234
      9 O          -0.7737    0.9844   -1.4750 O.co2   1  LIG11      -0.5493
     10 O          -0.8963   -0.7406   -2.9621 O.co2   1  LIG11      -0.5493
     11 C           0.9911   -0.4521    0.8930 C.3     1  LIG11       0.0465
     12 C          -1.4206   -4.3662   -0.8299 C.3     1  LIG11      -0.0298
     13 C          -3.9181   -1.3591    2.0829 C.ar    1  LIG11      -0.0122
     14 C          -5.0109   -0.8122   -0.0183 C.ar    1  LIG11      -0.0124
     15 C           2.0493   -1.5559    1.0058 C.2     1  LIG11       0.2608
     16 C          -1.4189   -5.7444   -0.0851 C.3     1  LIG11      -0.0479
     17 C          -2.7693   -4.2689   -1.5743 C.3     1  LIG11      -0.0596
     18 C          -0.2913   -4.3324   -1.8732 C.3     1  LIG11      -0.0596
     19 C          -5.1208   -1.9006    2.4925 C.ar    1  LIG11       0.1702
     20 C          -6.2201   -1.3684    0.4181 C.ar    1  LIG11       0.1656
     21 N           3.3614   -1.2368    0.6753 N.am    1  LIG11      -0.2971
     22 O           1.7138   -2.6849    1.3738 O.2     1  LIG11      -0.2697
     23 C          -0.0782   -6.1842    0.5228 C.3     1  LIG11      -0.0554
     24 C          -6.2377   -1.9070    1.6905 C.ar    1  LIG11       0.2075
     25 O          -5.3434   -2.4743    3.7067 O.3     1  LIG11      -0.4525
     26 O          -7.3839   -1.4257   -0.2907 O.3     1  LIG11      -0.4913
     27 C           3.8902    0.1340    0.6543 C.3     1  LIG11       0.0148
     28 C           4.3322   -2.3305    0.5640 C.3     1  LIG11       0.0148
     29 C          -0.2064   -7.5240    1.2346 C.3     1  LIG11      -0.0653
     30 O          -7.3046   -2.4885    2.3088 O.3     1  LIG11      -0.4489
     31 C          -6.7356   -2.8347    3.5834 C.3     1  LIG11       0.2334
     32 C          -7.3792   -0.8529   -1.5920 C.3     1  LIG11       0.0790
     33 C           4.5763    0.4715    1.9846 C.3     1  LIG11      -0.0374
     34 C           4.1367   -3.1223   -0.7319 C.3     1  LIG11      -0.0374
     35 C           5.0111    1.9324    2.0936 C.3     1  LIG11      -0.0545
     36 C           5.2528   -4.1341   -0.9958 C.3     1  LIG11      -0.0545
     37 C           3.8529    2.8700    2.3978 C.3     1  LIG11      -0.0652
     38 C           5.3642   -5.2081    0.0749 C.3     1  LIG11      -0.0652
@<TRIPOS>BOND
     1     1     2    1
     2     1     3    1
     3     1     4    1
     4     2     5    1
     5     2     6    1
     6     3     8    1
     7     3     7    1
     8     4    10   ar
     9     4     9   ar
    10     5     8    1
    11     5    11    1
    12     6    12    1
    13     7    14   ar
    14     7    13   ar
    15    11    15    1
    16    12    18    1
    17    12    17    1
    18    12    16    1
    19    13    19   ar
    20    14    20   ar
    21    15    22    2
    22    15    21   am
    23    16    23    1
    24    19    25    1
    25    19    24   ar
    26    20    24   ar
    27    20    26    1
    28    21    28    1
    29    21    27    1
    30    23    29    1
    31    24    30    1
    32    25    31    1
    33    26    32    1
    34    27    33    1
    35    28    34    1
    36    30    31    1
    37    33    35    1
    38    34    36    1
    39    35    37    1
    40    36    38    1
