@<TRIPOS>MOLECULE
16219006
 44 47 0 0 0
SMALL
GASTEIGER

@<TRIPOS>ATOM
      1 O           4.1931   -1.0870    2.2514 O.2     1  PRO11      -0.2738
      2 O           3.0669    0.9311   -1.3291 O.2     5  ASP55      -0.2735
      3 O           2.1417   -2.4952   -1.9143 O.2     2  VAL22      -0.2738
      4 O          -0.4757    2.9646    1.2252 O.2     4  TRP44      -0.2738
      5 O          -0.1373   -0.9953    1.7373 O.2     3  LEU33      -0.2738
      6 OD1         3.7373    4.3879   -1.1887 O.co2   5  ASP55      -0.5497
      7 OD2         2.6595    5.4582   -2.8884 O.co2   5  ASP55      -0.5497
      8 N           3.3988    1.7425    0.7639 N.am    1  PRO11      -0.2884
      9 N           4.1572   -1.2140   -0.0330 N.am    2  VAL22      -0.3022
     10 N           0.4309    1.9668   -0.6361 N.am    5  ASP55      -0.3021
     11 N           1.3441   -2.7407    0.2187 N.am    3  LEU33      -0.3025
     12 N          -1.1116   -0.2781   -0.2069 N.am    4  TRP44      -0.3022
     13 NE1        -5.4892   -0.7109   -1.3552 N.ar    4  TRP44      -0.3604
     14 CA          4.6190    0.9664    0.9724 C.3     1  PRO11       0.1023
     15 CB          5.2639    1.5897    2.2141 C.3     1  PRO11      -0.0243
     16 CG          4.0891    2.2134    2.9569 C.3     1  PRO11      -0.0350
     17 CD          3.2061    2.7138    1.8266 C.3     1  PRO11       0.0156
     18 C           4.3068   -0.5357    1.1586 C.2     1  PRO11       0.2342
     19 C           2.8062    1.7995   -0.4821 C.2     5  ASP55       0.2369
     20 CA          3.7702   -2.6183   -0.1006 C.3     2  VAL22       0.1017
     21 CA          1.6429    2.8012   -0.7016 C.3     5  ASP55       0.1047
     22 CB          4.7754   -3.4317   -0.9452 C.3     2  VAL22      -0.0197
     23 CA         -0.0402   -2.4975   -0.1589 C.3     3  LEU33       0.0996
     24 C           2.3567   -2.6297   -0.7116 C.2     2  VAL22       0.2342
     25 CB          1.7318    3.4674   -2.0640 C.3     5  ASP55       0.0138
     26 CA         -1.5763    0.9828    0.3840 C.3     4  TRP44       0.1034
     27 CB         -0.9867   -3.6150    0.3041 C.3     3  LEU33      -0.0236
     28 CG         -0.9136   -4.9123   -0.5307 C.3     3  LEU33      -0.0446
     29 C          -0.4554    2.0382    0.4166 C.2     4  TRP44       0.2343
     30 CB         -2.7688    1.5759   -0.3809 C.3     4  TRP44       0.0013
     31 C          -0.4224   -1.1905    0.5560 C.2     3  LEU33       0.2340
     32 CG1         4.3082   -4.8788   -1.1413 C.3     2  VAL22      -0.0605
     33 CG2         6.1562   -3.4454   -0.2772 C.3     2  VAL22      -0.0605
     34 CG         -3.9352    0.6362   -0.4962 C.ar    4  TRP44      -0.0201
     35 CG          2.8181    4.5361   -2.0397 C.2     5  ASP55       0.0440
     36 CD1         0.3815   -5.6955   -0.3130 C.3     3  LEU33      -0.0626
     37 CD2        -2.1034   -5.8145   -0.1868 C.3     3  LEU33      -0.0626
     38 CD2        -4.7439    0.1239    0.5708 C.ar    4  TRP44       0.0029
     39 CD1        -4.4333    0.1000   -1.6685 C.ar    4  TRP44       0.0060
     40 CE2        -5.6962   -0.7237    0.0030 C.ar    4  TRP44       0.0467
     41 CE3        -4.7512    0.2974    1.9701 C.ar    4  TRP44      -0.0523
     42 CZ2        -6.6487   -1.4132    0.7645 C.ar    4  TRP44      -0.0378
     43 CZ3        -5.6934   -0.3865    2.7464 C.ar    4  TRP44      -0.0611
     44 CH2        -6.6268   -1.2303    2.1488 C.ar    4  TRP44      -0.0598
@<TRIPOS>BOND
     1     1    18    2
     2     2    19    2
     3     3    24    2
     4     4    29    2
     5     5    31    2
     6     6    35   ar
     7     7    35   ar
     8     8    14    1
     9     8    17    1
    10     8    19   am
    11     9    18   am
    12     9    20    1
    13    10    21    1
    14    10    29   am
    15    11    23    1
    16    11    24   am
    17    12    26    1
    18    12    31   am
    19    13    39   ar
    20    13    40   ar
    21    14    15    1
    22    14    18    1
    23    15    16    1
    24    16    17    1
    25    19    21    1
    26    20    22    1
    27    20    24    1
    28    21    25    1
    29    22    32    1
    30    22    33    1
    31    23    27    1
    32    23    31    1
    33    25    35    1
    34    26    29    1
    35    26    30    1
    36    27    28    1
    37    28    36    1
    38    28    37    1
    39    30    34    1
    40    34    38   ar
    41    34    39   ar
    42    38    40   ar
    43    38    41   ar
    44    40    42   ar
    45    41    43   ar
    46    42    44   ar
    47    43    44   ar
@<TRIPOS>MOLECULE
16004692
 32 34 0 0 0
SMALL
GASTEIGER

@<TRIPOS>ATOM
      1 BR         -6.5749   -1.8460    4.4089 Br      1  LIG11      -0.0503
      2 BR         -4.5035    9.2983   -6.6745 Br      1  LIG11      -0.0472
      3 S          -2.7897   -2.3087   -1.7759 S.O2    1  LIG11       0.1104
      4 O          -4.8216    2.8330   -0.3184 O.3     1  LIG11      -0.4724
      5 O          -2.2482   -2.7417   -3.0407 O.2     1  LIG11      -0.1381
      6 O          -2.0657   -1.4833   -0.8425 O.2     1  LIG11      -0.1381
      7 O          -5.9654    5.9949   -1.9330 O.3     1  LIG11      -0.4590
      8 N          -3.3103   -3.6941   -0.9775 N.3     1  LIG11      -0.1771
      9 N          -4.3121   -1.6692   -2.0935 N.pl3   1  LIG11      -0.1889
     10 N          -3.9142    0.1935   -3.3060 N.ar    1  LIG11      -0.2186
     11 N          -4.0684    2.3821   -2.4444 N.ar    1  LIG11      -0.2008
     12 N          -5.7593    8.0621   -2.9266 N.ar    1  LIG11      -0.2022
     13 N          -5.1681    6.0989   -4.1487 N.ar    1  LIG11      -0.2022
     14 C          -2.3160   -4.7805   -0.7957 C.3     1  LIG11       0.0185
     15 C          -4.6591    0.5327   -0.9948 C.ar    1  LIG11       0.0848
     16 C          -4.3152   -0.2466   -2.1006 C.ar    1  LIG11       0.1532
     17 C          -1.0039   -4.3320   -0.1670 C.3     1  LIG11      -0.0416
     18 C          -5.1304   -0.0198    0.2987 C.ar    1  LIG11      -0.0094
     19 C          -4.5450    1.8886   -1.2824 C.ar    1  LIG11       0.2276
     20 C          -0.0989   -5.5237    0.1103 C.3     1  LIG11      -0.0641
     21 C          -6.0126   -1.1175    0.3540 C.ar    1  LIG11      -0.0527
     22 C          -4.7127    0.5177    1.5326 C.ar    1  LIG11      -0.0527
     23 C          -5.7209    3.8805   -0.7281 C.3     1  LIG11       0.1252
     24 C          -6.4340   -1.6691    1.5696 C.ar    1  LIG11      -0.0472
     25 C          -5.1515   -0.0115    2.7535 C.ar    1  LIG11      -0.0472
     26 C          -3.7790    1.5094   -3.4060 C.ar    1  LIG11       0.1219
     27 C          -5.2577    4.7510   -1.9011 C.3     1  LIG11       0.1267
     28 C          -6.0039   -1.1092    2.7659 C.ar    1  LIG11       0.0179
     29 C          -5.6013    6.7345   -3.0423 C.ar    1  LIG11       0.3180
     30 C          -5.4225    8.7927   -4.0126 C.ar    1  LIG11       0.0483
     31 C          -4.8526    6.8805   -5.2050 C.ar    1  LIG11       0.0483
     32 C          -4.9585    8.2458   -5.1888 C.ar    1  LIG11       0.0543
@<TRIPOS>BOND
     1     1    28    1
     2     2    32    1
     3     3     5    2
     4     3     6    2
     5     3     8    1
     6     3     9    1
     7     4    19    1
     8     4    23    1
     9     7    27    1
    10     7    29    1
    11     8    14    1
    12     9    16    1
    13    10    16   ar
    14    10    26   ar
    15    11    19   ar
    16    11    26   ar
    17    12    29   ar
    18    12    30   ar
    19    13    29   ar
    20    13    31   ar
    21    14    17    1
    22    15    16   ar
    23    15    18    1
    24    15    19   ar
    25    17    20    1
    26    18    21   ar
    27    18    22   ar
    28    21    24   ar
    29    22    25   ar
    30    23    27    1
    31    24    28   ar
    32    25    28   ar
    33    30    32   ar
    34    31    32   ar
