@<TRIPOS>MOLECULE
16219006
 44 47 0 0 0
SMALL
GASTEIGER

@<TRIPOS>ATOM
      1 O           4.2042   -0.9680    2.2467 O.2     1  PRO11      -0.2738
      2 O           3.0868    1.0637   -1.3070 O.2     5  ASP55      -0.2735
      3 O           1.9393   -1.9514   -1.8012 O.2     2  VAL22      -0.2738
      4 O          -0.5542    2.9015    1.2439 O.2     4  TRP44      -0.2738
      5 O          -0.7058   -1.2577    1.7843 O.2     3  LEU33      -0.2738
      6 OD1         3.2524    5.0530   -0.8202 O.co2   5  ASP55      -0.5497
      7 OD2         3.7040    4.4491   -2.9704 O.co2   5  ASP55      -0.5497
      8 N           3.4494    1.8623    0.7798 N.am    1  PRO11      -0.2884
      9 N           4.1362   -1.0964   -0.0398 N.am    2  VAL22      -0.3022
     10 N           0.4398    2.0215   -0.6291 N.am    5  ASP55      -0.3021
     11 N           1.1863   -2.7866    0.1849 N.am    3  LEU33      -0.3025
     12 N          -1.1267   -0.3148   -0.2699 N.am    4  TRP44      -0.3022
     13 NE1        -2.0201    1.6552   -4.1577 N.ar    4  TRP44      -0.3604
     14 CA          4.6663    1.0738    0.9659 C.3     1  PRO11       0.1023
     15 CB          5.3264    1.6819    2.2065 C.3     1  PRO11      -0.0243
     16 CG          4.1581    2.2880    2.9758 C.3     1  PRO11      -0.0350
     17 CD          3.2555    2.8046    1.8682 C.3     1  PRO11       0.0156
     18 C           4.3255   -0.4224    1.1515 C.2     1  PRO11       0.2342
     19 C           2.8142    1.9086   -0.4412 C.2     5  ASP55       0.2369
     20 CA          3.6100   -2.4533   -0.0869 C.3     2  VAL22       0.1017
     21 CA          1.6300    2.8857   -0.6287 C.3     5  ASP55       0.1047
     22 CB          4.5402   -3.4069   -0.8692 C.3     2  VAL22      -0.0197
     23 CA         -0.2054   -2.5805   -0.1863 C.3     3  LEU33       0.0996
     24 C           2.1856   -2.3706   -0.6719 C.2     2  VAL22       0.2342
     25 CB          1.7527    3.6132   -1.9571 C.3     5  ASP55       0.0138
     26 CA         -1.6103    0.9659    0.2567 C.3     4  TRP44       0.1034
     27 CB         -1.0759   -3.7844    0.1910 C.3     3  LEU33      -0.0236
     28 CG         -0.7271   -5.0828   -0.5665 C.3     3  LEU33      -0.0446
     29 C          -0.4989    2.0300    0.3766 C.2     4  TRP44       0.2343
     30 CB         -2.8067    1.4940   -0.5526 C.3     4  TRP44       0.0013
     31 C          -0.6995   -1.3278    0.5570 C.2     3  LEU33       0.2340
     32 CG1         4.7962   -3.0001   -2.3233 C.3     2  VAL22      -0.0605
     33 CG2         4.0256   -4.8493   -0.8142 C.3     2  VAL22      -0.0605
     34 CG         -2.5173    1.8268   -1.9895 C.ar    4  TRP44      -0.0201
     35 CG          3.0234    4.4531   -1.9082 C.2     5  ASP55       0.0440
     36 CD1        -1.6720   -6.2036   -0.1269 C.3     3  LEU33      -0.0626
     37 CD2        -0.7970   -4.9198   -2.0868 C.3     3  LEU33      -0.0626
     38 CD2        -2.4202    3.1433   -2.5502 C.ar    4  TRP44       0.0029
     39 CD1        -2.3092    0.9373   -3.0279 C.ar    4  TRP44       0.0060
     40 CE2        -2.1143    3.0018   -3.9032 C.ar    4  TRP44       0.0467
     41 CE3        -2.5524    4.4460   -2.0269 C.ar    4  TRP44      -0.0523
     42 CZ2        -1.9336    4.0942   -4.7598 C.ar    4  TRP44      -0.0378
     43 CZ3        -2.3856    5.5499   -2.8710 C.ar    4  TRP44      -0.0611
     44 CH2        -2.0796    5.3736   -4.2178 C.ar    4  TRP44      -0.0598
@<TRIPOS>BOND
     1     1    18    2
     2     2    19    2
     3     3    24    2
     4     4    29    2
     5     5    31    2
     6     6    35   ar
     7     7    35   ar
     8     8    14    1
     9     8    17    1
    10     8    19   am
    11     9    18   am
    12     9    20    1
    13    10    21    1
    14    10    29   am
    15    11    23    1
    16    11    24   am
    17    12    26    1
    18    12    31   am
    19    13    39   ar
    20    13    40   ar
    21    14    15    1
    22    14    18    1
    23    15    16    1
    24    16    17    1
    25    19    21    1
    26    20    22    1
    27    20    24    1
    28    21    25    1
    29    22    32    1
    30    22    33    1
    31    23    27    1
    32    23    31    1
    33    25    35    1
    34    26    29    1
    35    26    30    1
    36    27    28    1
    37    28    36    1
    38    28    37    1
    39    30    34    1
    40    34    38   ar
    41    34    39   ar
    42    38    40   ar
    43    38    41   ar
    44    40    42   ar
    45    41    43   ar
    46    42    44   ar
    47    43    44   ar
@<TRIPOS>MOLECULE
178103
 37 41 0 0 0
SMALL
GASTEIGER

@<TRIPOS>ATOM
      1 O           0.9376    3.6593   -6.7969 O.co2   1  LIG11      -0.5495
      2 O          -0.5938    2.0714   -7.3530 O.co2   1  LIG11      -0.5495
      3 O          -0.6656   -2.8635   -2.0948 O.3     1  LIG11      -0.4920
      4 O           1.9694    1.7505   -2.5954 O.3     1  LIG11      -0.4893
      5 O          -2.5518    5.0494   -0.6805 O.3     1  LIG11      -0.4526
      6 O          -3.0446    6.9416   -2.0948 O.3     1  LIG11      -0.4526
      7 O           6.3408    0.5330   -4.0650 O.3     1  LIG11      -0.4950
      8 O           0.6097    2.2227   -0.2024 O.3     1  LIG11      -0.3917
      9 C           0.1062    2.2642   -5.0895 C.3     1  LIG11       0.0203
     10 C           0.7190    0.8493   -5.0291 C.3     1  LIG11       0.0218
     11 C          -1.3601    2.1534   -4.6042 C.3     1  LIG11       0.0184
     12 C          -0.1550    0.1605   -4.0053 C.ar    1  LIG11      -0.0320
     13 C          -1.3322    0.8791   -3.7843 C.ar    1  LIG11      -0.0353
     14 C           2.2170    0.8075   -4.7503 C.ar    1  LIG11       0.0025
     15 C          -1.8176    3.4351   -3.9099 C.ar    1  LIG11      -0.0356
     16 C           0.1547    2.6982   -6.5501 C.2     1  LIG11       0.0466
     17 C           0.0433   -1.0854   -3.4199 C.ar    1  LIG11      -0.0159
     18 C          -2.3382    0.3404   -2.9920 C.ar    1  LIG11      -0.0542
     19 C           2.8100    1.2562   -3.5565 C.ar    1  LIG11       0.1278
     20 C          -0.9537   -1.6249   -2.6035 C.ar    1  LIG11       0.1208
     21 C          -1.9424    3.5652   -2.5167 C.ar    1  LIG11      -0.0124
     22 C          -2.1370   -0.9049   -2.3837 C.ar    1  LIG11      -0.0196
     23 C          -2.1058    4.5625   -4.7228 C.ar    1  LIG11      -0.0543
     24 C           3.0541    0.2986   -5.7612 C.ar    1  LIG11      -0.0510
     25 C          -2.3672    4.7733   -2.0007 C.ar    1  LIG11       0.1665
     26 C          -2.5213    5.7800   -4.1725 C.ar    1  LIG11      -0.0159
     27 C           4.1964    1.1415   -3.3823 C.ar    1  LIG11       0.0221
     28 C           4.4356    0.1944   -5.5810 C.ar    1  LIG11      -0.0194
     29 C          -2.6490    5.8509   -2.8053 C.ar    1  LIG11       0.1662
     30 C           5.0098    0.6009   -4.3817 C.ar    1  LIG11       0.1236
     31 C          -1.7422   -3.5767   -1.4911 C.3     1  LIG11       0.0893
     32 C          -2.9806    6.4222   -0.7517 C.3     1  LIG11       0.2332
     33 C           2.5485    2.5964   -1.5997 C.3     1  LIG11       0.1126
     34 C          -1.2995   -5.0174   -1.2405 C.3     1  LIG11      -0.0215
     35 C           1.4019    3.2357   -0.8254 C.3     1  LIG11       0.0783
     36 C           7.1612   -0.2180   -4.9502 C.3     1  LIG11       0.0788
     37 C          -0.1400   -5.1112   -0.2594 C.3     1  LIG11      -0.0622
@<TRIPOS>BOND
     1     1    16   ar
     2     2    16   ar
     3     3    20    1
     4     3    31    1
     5     4    19    1
     6     4    33    1
     7     5    25    1
     8     5    32    1
     9     6    29    1
    10     6    32    1
    11     7    30    1
    12     7    36    1
    13     8    35    1
    14     9    10    1
    15     9    11    1
    16     9    16    1
    17    10    12    1
    18    10    14    1
    19    11    13    1
    20    11    15    1
    21    12    13   ar
    22    12    17   ar
    23    13    18   ar
    24    14    19   ar
    25    14    24   ar
    26    15    21   ar
    27    15    23   ar
    28    17    20   ar
    29    18    22   ar
    30    19    27   ar
    31    20    22   ar
    32    21    25   ar
    33    23    26   ar
    34    24    28   ar
    35    25    29   ar
    36    26    29   ar
    37    27    30   ar
    38    28    30   ar
    39    31    34    1
    40    33    35    1
    41    34    37    1
