@<TRIPOS>MOLECULE
16219006
 44 47 0 0 0
SMALL
GASTEIGER

@<TRIPOS>ATOM
      1 O           4.2431   -0.9993    2.2271 O.2     1  PRO11      -0.2738
      2 O           3.0851    1.0077   -1.3271 O.2     5  ASP55      -0.2735
      3 O           2.0185   -2.0022   -1.8619 O.2     2  VAL22      -0.2738
      4 O          -0.4555    2.9185    1.2921 O.2     4  TRP44      -0.2738
      5 O          -0.3234   -1.1633    1.7377 O.2     3  LEU33      -0.2738
      6 OD1         3.6408    4.3603   -3.0931 O.co2   5  ASP55      -0.5497
      7 OD2         3.2063    5.0147   -0.9545 O.co2   5  ASP55      -0.5497
      8 N           3.4482    1.8291    0.7504 N.am    1  PRO11      -0.2884
      9 N           4.1633   -1.1307   -0.0593 N.am    2  VAL22      -0.3022
     10 N           0.4232    1.9814   -0.6147 N.am    5  ASP55      -0.3021
     11 N           1.2186   -2.8244    0.1121 N.am    3  LEU33      -0.3025
     12 N          -1.1405   -0.2777   -0.2153 N.am    4  TRP44      -0.3022
     13 NE1        -5.4962   -0.6803   -1.3421 N.ar    4  TRP44      -0.3604
     14 CA          4.6698    1.0484    0.9430 C.3     1  PRO11       0.1023
     15 CB          5.3222    1.6670    2.1832 C.3     1  PRO11      -0.0243
     16 CG          4.1495    2.2742    2.9437 C.3     1  PRO11      -0.0350
     17 CD          3.2511    2.7820    1.8289 C.3     1  PRO11       0.0156
     18 C           4.3477   -0.4530    1.1317 C.2     1  PRO11       0.2342
     19 C           2.8145    1.8621   -0.4710 C.2     5  ASP55       0.2369
     20 CA          3.6469   -2.4920   -0.1075 C.3     2  VAL22       0.1017
     21 CA          1.6253    2.8333   -0.6703 C.3     5  ASP55       0.1047
     22 CB          4.5965   -3.4463   -0.8658 C.3     2  VAL22      -0.0197
     23 CA         -0.1602   -2.5289   -0.2551 C.3     3  LEU33       0.0996
     24 C           2.2378   -2.4177   -0.7266 C.2     2  VAL22       0.2342
     25 CB          1.7242    3.5113   -2.0261 C.3     5  ASP55       0.0138
     26 CA         -1.5796    0.9748    0.4070 C.3     4  TRP44       0.1034
     27 CB         -1.1044   -3.6779    0.1109 C.3     3  LEU33      -0.0236
     28 CG         -0.7918   -5.0062   -0.6103 C.3     3  LEU33      -0.0446
     29 C          -0.4489    2.0187    0.4532 C.2     4  TRP44       0.2343
     30 CB         -2.7741    1.5936   -0.3355 C.3     4  TRP44       0.0013
     31 C          -0.5419   -1.2658    0.5309 C.2     3  LEU33       0.2340
     32 CG1         4.8783   -3.0464   -2.3171 C.3     2  VAL22      -0.0605
     33 CG2         4.0838   -4.8893   -0.8132 C.3     2  VAL22      -0.0605
     34 CG         -3.9449    0.6610   -0.4654 C.ar    4  TRP44      -0.0201
     35 CG          2.9787    4.3776   -2.0186 C.2     5  ASP55       0.0440
     36 CD1        -1.7743   -6.0868   -0.1540 C.3     3  LEU33      -0.0626
     37 CD2        -0.8390   -4.8763   -2.1337 C.3     3  LEU33      -0.0626
     38 CD2        -4.7576    0.1395    0.5942 C.ar    4  TRP44       0.0029
     39 CD1        -4.4392    0.1349   -1.6437 C.ar    4  TRP44       0.0060
     40 CE2        -5.7072   -0.7036    0.0166 C.ar    4  TRP44       0.0467
     41 CE3        -4.7680    0.2991    1.9954 C.ar    4  TRP44      -0.0523
     42 CZ2        -6.6606   -1.4012    0.7679 C.ar    4  TRP44      -0.0378
     43 CZ3        -5.7120   -0.3932    2.7629 C.ar    4  TRP44      -0.0611
     44 CH2        -6.6428   -1.2315    2.1562 C.ar    4  TRP44      -0.0598
@<TRIPOS>BOND
     1     1    18    2
     2     2    19    2
     3     3    24    2
     4     4    29    2
     5     5    31    2
     6     6    35   ar
     7     7    35   ar
     8     8    14    1
     9     8    17    1
    10     8    19   am
    11     9    18   am
    12     9    20    1
    13    10    21    1
    14    10    29   am
    15    11    23    1
    16    11    24   am
    17    12    26    1
    18    12    31   am
    19    13    39   ar
    20    13    40   ar
    21    14    15    1
    22    14    18    1
    23    15    16    1
    24    16    17    1
    25    19    21    1
    26    20    22    1
    27    20    24    1
    28    21    25    1
    29    22    32    1
    30    22    33    1
    31    23    27    1
    32    23    31    1
    33    25    35    1
    34    26    29    1
    35    26    30    1
    36    27    28    1
    37    28    36    1
    38    28    37    1
    39    30    34    1
    40    34    38   ar
    41    34    39   ar
    42    38    40   ar
    43    38    41   ar
    44    40    42   ar
    45    41    43   ar
    46    42    44   ar
    47    43    44   ar
@<TRIPOS>MOLECULE
*****
 27 29 0 0 0
SMALL
GASTEIGER

@<TRIPOS>ATOM
      1 C          -4.1832   -0.1781   -3.8679 C.ar    1  LIG11      -0.0615
      2 C          -4.5964    1.0974   -4.2219 C.ar    1  LIG11      -0.0617
      3 C          -4.5674    2.1143   -3.2733 C.ar    1  LIG11      -0.0615
      4 C          -4.0966    1.8635   -1.9791 C.ar    1  LIG11      -0.0576
      5 C          -3.6238    0.5928   -1.6028 C.ar    1  LIG11      -0.0332
      6 C          -3.7228   -0.4275   -2.5730 C.ar    1  LIG11      -0.0576
      7 C          -4.2603    0.1656    2.1620 C.ar    1  LIG11      -0.0576
      8 C          -5.3646   -0.1138    2.9786 C.ar    1  LIG11      -0.0615
      9 C          -6.5096   -0.6876    2.4390 C.ar    1  LIG11      -0.0617
     10 C          -6.5403   -1.0046    1.0886 C.ar    1  LIG11      -0.0615
     11 C          -5.4328   -0.7243    0.2742 C.ar    1  LIG11      -0.0576
     12 N          -0.1874   -0.2599   -3.2275 N.ar    1  LIG11      -0.2002
     13 C          -0.6147   -1.0126   -2.1978 C.ar    1  LIG11       0.3190
     14 N          -0.8511   -2.3323   -2.2577 N.ar    1  LIG11      -0.2002
     15 C          -0.6603   -2.9274   -3.4487 C.ar    1  LIG11       0.0453
     16 C          -0.2492   -2.2344   -4.5698 C.ar    1  LIG11      -0.0193
     17 C          -0.0215   -0.8815   -4.4102 C.ar    1  LIG11       0.0453
     18 C           0.4011   -0.0294   -5.5677 C.3     1  LIG11      -0.0221
     19 C          -0.9253   -4.3997   -3.5249 C.3     1  LIG11      -0.0221
     20 O          -0.8497   -0.3238   -1.0351 O.3     1  LIG11      -0.4519
     21 C          -1.9474   -0.8151   -0.2069 C.3     1  LIG11       0.1554
     22 C          -3.0745    0.2949   -0.1458 C.3     1  LIG11       0.0601
     23 C          -1.3575   -1.1972    1.1802 C.2     1  LIG11       0.0833
     24 O          -0.4296   -0.4656    1.6346 O.co2   1  LIG11      -0.5460
     25 O          -1.8688   -2.2251    1.7212 O.co2   1  LIG11      -0.5460
     26 C          -4.2750   -0.1016    0.7801 C.ar    1  LIG11      -0.0332
     27 C          -2.4133    1.6119    0.3866 C.3     1  LIG11      -0.0477
@<TRIPOS>BOND
     1     1     2   ar
     2     2     3   ar
     3     3     4   ar
     4     4     5   ar
     5     5     6   ar
     6     5    22    1
     7     6     1   ar
     8     7     8   ar
     9     8     9   ar
    10     9    10   ar
    11    10    11   ar
    12    11    26   ar
    13    12    13   ar
    14    13    14   ar
    15    14    15   ar
    16    15    16   ar
    17    15    19    1
    18    16    17   ar
    19    17    12   ar
    20    17    18    1
    21    20    21    1
    22    20    13    1
    23    21    23    1
    24    21    22    1
    25    22    27    1
    26    22    26    1
    27    23    25   ar
    28    23    24   ar
    29    26     7   ar
