@<TRIPOS>MOLECULE
46174111
 44 47 0 0 0
SMALL
GASTEIGER

@<TRIPOS>ATOM
      1 CL          3.1751   -3.9753    2.1333 Cl      1  LIG11      -0.0762
      2 S          -0.2320   -1.2821    0.7442 S.O2    1  LIG11       0.0758
      3 S          -2.4543    0.2652   -2.5296 S.2     1  LIG11      -0.0918
      4 O          -4.2247    6.1635    2.5958 O.3     1  LIG11      -0.4526
      5 O          -5.0637    4.8626    4.4465 O.3     1  LIG11      -0.4526
      6 O          -1.2374    1.6100    0.8908 O.2     1  LIG11      -0.2911
      7 O          -1.3205   -1.4243    1.6877 O.2     1  LIG11      -0.1499
      8 O           0.8150   -0.2967    0.8850 O.2     1  LIG11      -0.1499
      9 O           2.0771   -2.2089   -1.1434 O.2     1  LIG11      -0.3364
     10 N           0.4955   -2.8109    0.6624 N.pl3   1  LIG11      -0.1821
     11 N           3.4344   -2.3085   -1.3952 N.ar    1  LIG11      -0.0798
     12 C          -3.7974    2.8269    1.0878 C.ar    1  LIG11      -0.0333
     13 C          -3.2982    2.1770   -0.1914 C.3     1  LIG11       0.0366
     14 C          -4.3072    2.0613    2.1764 C.ar    1  LIG11      -0.0432
     15 C          -1.0340   -0.9041   -0.7465 C.ar    1  LIG11       0.1261
     16 C          -1.7919    0.2412   -0.9447 C.ar    1  LIG11       0.0814
     17 C          -3.7536    4.2321    1.1855 C.ar    1  LIG11      -0.0123
     18 C          -2.0300    1.3440   -0.0117 C.2     1  LIG11       0.1759
     19 C          -4.2015    4.8270    2.3451 C.ar    1  LIG11       0.1665
     20 C          -4.6799    4.0882    3.3967 C.ar    1  LIG11       0.1665
     21 C          -4.7392    2.7136    3.3469 C.ar    1  LIG11      -0.0130
     22 C          -4.3276    0.5552    2.1711 C.3     1  LIG11      -0.0393
     23 C          -1.0584   -1.7799   -1.8770 C.ar    1  LIG11      -0.0273
     24 C          -4.7629    6.1767    3.9343 C.3     1  LIG11       0.2332
     25 C          -1.7888   -1.2562   -2.9189 C.ar    1  LIG11      -0.0217
     26 C           1.7922   -2.7610    0.0684 C.ar    1  LIG11       0.2554
     27 C           2.9567   -3.2322    0.6255 C.ar    1  LIG11       0.1262
     28 C           3.9611   -2.8946   -0.3110 C.ar    1  LIG11       0.1009
     29 C           5.4264   -3.0778   -0.2046 C.3     1  LIG11      -0.0176
     30 H           0.4877   -3.2287    1.5943 H       1  LIG11       0.1768
     31 H          -4.1159    1.5631   -0.5844 H       1  LIG11       0.0394
     32 H          -3.0801    2.9436   -0.9456 H       1  LIG11       0.0394
     33 H          -3.3676    4.8486    0.3802 H       1  LIG11       0.0658
     34 H          -5.1050    2.1552    4.2027 H       1  LIG11       0.0658
     35 H          -4.4768    0.1493    1.1673 H       1  LIG11       0.0278
     36 H          -5.1527    0.1769    2.7843 H       1  LIG11       0.0278
     37 H          -3.3881    0.1722    2.5794 H       1  LIG11       0.0278
     38 H          -0.5673   -2.7439   -1.9333 H       1  LIG11       0.0643
     39 H          -5.6840    6.7710    3.9350 H       1  LIG11       0.1166
     40 H          -4.0359    6.6552    4.6008 H       1  LIG11       0.1166
     41 H          -1.9647   -1.6963   -3.8919 H       1  LIG11       0.0694
     42 H           5.9105   -3.0172   -1.1848 H       1  LIG11       0.0294
     43 H           5.6708   -4.0518    0.2296 H       1  LIG11       0.0294
     44 H           5.8553   -2.2984    0.4341 H       1  LIG11       0.0294
@<TRIPOS>BOND
     1     1    27    1
     2     2    10    1
     3     2    15    1
     4     2     8    2
     5     2     7    2
     6     3    16   ar
     7     3    25   ar
     8     4    24    1
     9     4    19    1
    10     5    20    1
    11     5    24    1
    12     6    18    2
    13     9    11   ar
    14     9    26   ar
    15    10    26    1
    16    11    28   ar
    17    12    17   ar
    18    12    14   ar
    19    13    18    1
    20    13    12    1
    21    14    21   ar
    22    14    22    1
    23    15    23   ar
    24    15    16   ar
    25    16    18    1
    26    17    19   ar
    27    19    20   ar
    28    20    21   ar
    29    23    25   ar
    30    26    27   ar
    31    27    28   ar
    32    28    29    1
    33    10    30    1
    34    13    31    1
    35    13    32    1
    36    17    33    1
    37    21    34    1
    38    22    35    1
    39    22    36    1
    40    22    37    1
    41    23    38    1
    42    24    39    1
    43    24    40    1
    44    25    41    1
    45    29    42    1
    46    29    43    1
    47    29    44    1
@<TRIPOS>MOLECULE
16219006
 85 88 0 0 0
SMALL
GASTEIGER

@<TRIPOS>ATOM
      1 O           4.5485   -0.9717    2.1928 O.2     1  PRO11      -0.2738
      2 O           3.3858    1.2213   -1.4248 O.2     5  ASP55      -0.2735
      3 O           1.9003   -1.6917   -1.7321 O.2     2  VAL22      -0.2738
      4 O           0.0522    2.4408    1.5695 O.2     4  TRP44      -0.2738
      5 O          -0.5989   -1.3451    1.7792 O.2     3  LEU33      -0.2738
      6 OD1         0.6458    5.5018   -2.1487 O.co2   5  ASP55      -0.5497
      7 OD2        -0.4878    3.5804   -2.6685 O.co2   5  ASP55      -0.5497
      8 N           3.5427    1.9040    0.7162 N.am    1  PRO11      -0.2884
      9 N           4.1061   -1.0169   -0.0518 N.am    2  VAL22      -0.3022
     10 N           0.4985    1.9417   -0.6340 N.am    5  ASP55      -0.3021
     11 N           1.1369   -2.8662    0.0743 N.am    3  LEU33      -0.3025
     12 N          -1.1439   -0.3005   -0.2013 N.am    4  TRP44      -0.3022
     13 NE1        -3.5693    5.0924    0.4996 N.ar    4  TRP44      -0.3604
     14 CA          4.7667    1.1286    0.9430 C.3     1  PRO11       0.1023
     15 CB          5.3753    1.7517    2.2029 C.3     1  PRO11      -0.0243
     16 CG          4.1607    2.2689    2.9619 C.3     1  PRO11      -0.0350
     17 CD          3.2550    2.7701    1.8489 C.3     1  PRO11       0.0156
     18 C           4.4570   -0.3779    1.1198 C.2     1  PRO11       0.2342
     19 C           2.9410    1.9502   -0.5253 C.2     5  ASP55       0.2369
     20 CA          3.5526   -2.3626   -0.0675 C.3     2  VAL22       0.1017
     21 CA          1.6755    2.8203   -0.7360 C.3     5  ASP55       0.1047
     22 CB          4.4297   -3.3745   -0.8393 C.3     2  VAL22      -0.0197
     23 CA         -0.2543   -2.5829   -0.2737 C.3     3  LEU33       0.0996
     24 C           2.1349   -2.2633   -0.6685 C.2     2  VAL22       0.2342
     25 CB          1.7785    3.4399   -2.1294 C.3     5  ASP55       0.0138
     26 CA         -1.5068    0.9768    0.4372 C.3     4  TRP44       0.1034
     27 CB         -1.1559   -3.7742    0.0754 C.3     3  LEU33      -0.0236
     28 CG         -2.6464   -3.5628   -0.2666 C.3     3  LEU33      -0.0446
     29 C          -0.2387    1.8498    0.5318 C.2     4  TRP44       0.2343
     30 CB         -2.6427    1.6411   -0.3463 C.3     4  TRP44       0.0013
     31 C          -0.6714   -1.3528    0.5515 C.2     3  LEU33       0.2340
     32 CG1         5.7356   -3.6471   -0.0850 C.3     2  VAL22      -0.0605
     33 CG2         4.7550   -2.9539   -2.2766 C.3     2  VAL22      -0.0605
     34 CG         -3.1490    2.9179    0.2450 C.ar    4  TRP44      -0.0201
     35 CG          0.5269    4.2646   -2.3371 C.2     5  ASP55       0.0440
     36 CD1        -2.8780   -3.3316   -1.7600 C.3     3  LEU33      -0.0626
     37 CD2        -3.4624   -4.7682    0.2042 C.3     3  LEU33      -0.0626
     38 CD2        -3.8667    3.1073    1.4696 C.ar    4  TRP44       0.0029
     39 CD1        -2.9990    4.1659   -0.3244 C.ar    4  TRP44       0.0060
     40 CE2        -4.1192    4.4753    1.5986 C.ar    4  TRP44       0.0467
     41 CE3        -4.3169    2.2458    2.4918 C.ar    4  TRP44      -0.0523
     42 CZ2        -4.7998    5.0226    2.6930 C.ar    4  TRP44      -0.0378
     43 CZ3        -4.9919    2.7779    3.5977 C.ar    4  TRP44      -0.0611
     44 CH2        -5.2301    4.1465    3.6934 C.ar    4  TRP44      -0.0598
     45 H           3.8522   -0.4074   -0.8401 H       2  VAL22       0.1495
     46 H          -0.0660    1.9567   -1.4857 H       5  ASP55       0.1495
     47 H           1.3173   -2.9578    1.0702 H       3  LEU33       0.1495
     48 H          -0.7654   -0.2242   -1.1412 H       4  TRP44       0.1495
     49 HE1        -3.5657    6.0873    0.3284 H       4  TRP44       0.1653
     50 HA          5.4511    1.2374    0.0946 H       1  PRO11       0.0597
     51 HB1         6.0125    2.6000    1.9222 H       1  PRO11       0.0288
     52 HB2         5.9788    1.0612    2.7996 H       1  PRO11       0.0288
     53 HG1         4.4085    3.0495    3.6855 H       1  PRO11       0.0281
     54 HG2         3.6767    1.4455    3.4993 H       1  PRO11       0.0281
     55 HD1         2.2104    2.7221    2.1407 H       1  PRO11       0.0465
     56 HD2         3.5021    3.7994    1.5626 H       1  PRO11       0.0465
     57 HA          3.4524   -2.7155    0.9654 H       2  VAL22       0.0597
     58 HA          1.6119    3.6098    0.0175 H       5  ASP55       0.0598
     59 HB          3.8803   -4.3231   -0.8948 H       2  VAL22       0.0318
     60 HA         -0.3195   -2.3671   -1.3442 H       3  LEU33       0.0594
     61 HB1         1.8364    2.6756   -2.9159 H       5  ASP55       0.0348
     62 HB2         2.6750    4.0638   -2.2156 H       5  ASP55       0.0348
     63 HA         -1.8291    0.7639    1.4633 H       4  TRP44       0.0598
     64 HB1        -1.0671   -3.9942    1.1489 H       3  LEU33       0.0290
     65 HB2        -0.7844   -4.6667   -0.4466 H       3  LEU33       0.0290
     66 HG         -3.0199   -2.6858    0.2765 H       3  LEU33       0.0296
     67 HB1        -3.4858    0.9400   -0.4133 H       4  TRP44       0.0337
     68 HB2        -2.3319    1.8176   -1.3838 H       4  TRP44       0.0337
     69 HG11        6.3668   -2.7525   -0.0341 H       2  VAL22       0.0233
     70 HG12        6.3132   -4.4348   -0.5820 H       2  VAL22       0.0233
     71 HG13        5.5344   -3.9811    0.9390 H       2  VAL22       0.0233
     72 HG21        5.2890   -1.9982   -2.3112 H       2  VAL22       0.0233
     73 HG22        3.8489   -2.8632   -2.8830 H       2  VAL22       0.0233
     74 HG23        5.3895   -3.7047   -2.7619 H       2  VAL22       0.0233
     75 HD11       -2.4563   -4.1463   -2.3586 H       3  LEU33       0.0232
     76 HD12       -2.4270   -2.3924   -2.0958 H       3  LEU33       0.0232
     77 HD13       -3.9494   -3.2681   -1.9824 H       3  LEU33       0.0232
     78 HD21       -3.1493   -5.6852   -0.3069 H       3  LEU33       0.0232
     79 HD22       -4.5293   -4.6158    0.0056 H       3  LEU33       0.0232
     80 HD23       -3.3441   -4.9209    1.2817 H       3  LEU33       0.0232
     81 HD1        -2.5030    4.4718   -1.2399 H       4  TRP44       0.0810
     82 HE3        -4.1281    1.1780    2.4333 H       4  TRP44       0.0624
     83 HZ2        -4.9764    6.0900    2.7704 H       4  TRP44       0.0638
     84 HZ3        -5.3228    2.1134    4.3910 H       4  TRP44       0.0618
     85 HH2        -5.7496    4.5425    4.5621 H       4  TRP44       0.0618
@<TRIPOS>BOND
     1     1    18    2
     2     2    19    2
     3     3    24    2
     4     4    29    2
     5     5    31    2
     6     6    35   ar
     7     7    35   ar
     8     8    14    1
     9     8    17    1
    10     8    19   am
    11     9    18   am
    12     9    20    1
    13    10    21    1
    14    10    29   am
    15    11    23    1
    16    11    24   am
    17    12    26    1
    18    12    31   am
    19    13    39   ar
    20    13    40   ar
    21    14    15    1
    22    14    18    1
    23    15    16    1
    24    16    17    1
    25    19    21    1
    26    20    22    1
    27    20    24    1
    28    21    25    1
    29    22    32    1
    30    22    33    1
    31    23    27    1
    32    23    31    1
    33    25    35    1
    34    26    29    1
    35    26    30    1
    36    27    28    1
    37    28    36    1
    38    28    37    1
    39    30    34    1
    40    34    38   ar
    41    34    39   ar
    42    38    40   ar
    43    38    41   ar
    44    40    42   ar
    45    41    43   ar
    46    42    44   ar
    47    43    44   ar
    48     9    45    1
    49    10    46    1
    50    11    47    1
    51    12    48    1
    52    13    49    1
    53    14    50    1
    54    15    51    1
    55    15    52    1
    56    16    53    1
    57    16    54    1
    58    17    55    1
    59    17    56    1
    60    20    57    1
    61    21    58    1
    62    22    59    1
    63    23    60    1
    64    25    61    1
    65    25    62    1
    66    26    63    1
    67    27    64    1
    68    27    65    1
    69    28    66    1
    70    30    67    1
    71    30    68    1
    72    32    69    1
    73    32    70    1
    74    32    71    1
    75    33    72    1
    76    33    73    1
    77    33    74    1
    78    36    75    1
    79    36    76    1
    80    36    77    1
    81    37    78    1
    82    37    79    1
    83    37    80    1
    84    39    81    1
    85    41    82    1
    86    42    83    1
    87    43    84    1
    88    44    85    1
