@<TRIPOS>MOLECULE
9910224
 46 49 0 0 0
SMALL
GASTEIGER

@<TRIPOS>ATOM
      1 S          -1.7995   -1.0695    0.1814 S.O2    1  LIG11       0.0756
      2 O          -0.9299   -1.4892    1.2641 O.2     1  LIG11      -0.1499
      3 O          -2.6037   -2.0640   -0.4939 O.2     1  LIG11      -0.1499
      4 O           1.6831   -1.4665   -0.9678 O.3     1  LIG11      -0.4773
      5 O          -7.3304   -2.0879   -4.8273 O.2     1  LIG11      -0.4229
      6 N          -0.8666   -0.3110   -0.9988 N.pl3   1  LIG11      -0.1951
      7 N          -4.8859    1.4994    0.6991 N.ar    1  LIG11      -0.2530
      8 N          -0.0076    1.5928    0.0434 N.ar    1  LIG11      -0.2325
      9 N           2.5857    0.4153    0.1574 N.ar    1  LIG11      -0.2137
     10 N          -5.5894   -1.4110   -6.0580 N.ar    1  LIG11      -0.1076
     11 N          -6.4845   -2.0467   -6.8967 N.ar    1  LIG11      -0.1156
     12 C          -2.8608    0.2083    0.7830 C.ar    1  LIG11       0.1344
     13 C          -4.0394    0.5800    0.1418 C.ar    1  LIG11       0.0975
     14 C          -4.5468    0.0622   -1.1378 C.ar    1  LIG11       0.0023
     15 C          -2.5499    0.7909    2.0218 C.ar    1  LIG11      -0.0315
     16 C          -3.8730    0.2681   -2.3500 C.ar    1  LIG11      -0.0518
     17 C          -5.7752   -0.6190   -1.1783 C.ar    1  LIG11      -0.0518
     18 C           0.2594    0.3807   -0.4815 C.ar    1  LIG11       0.2006
     19 C          -5.6016   -0.9361   -3.5833 C.ar    1  LIG11       0.0385
     20 C          -4.3868   -0.2358   -3.5535 C.ar    1  LIG11      -0.0488
     21 C          -6.2950   -1.1125   -2.3802 C.ar    1  LIG11      -0.0488
     22 C          -3.4051    1.7317    2.5802 C.ar    1  LIG11      -0.0417
     23 C          -4.5539    2.0503    1.8862 C.ar    1  LIG11       0.0284
     24 C           1.5256   -0.2130   -0.4054 C.ar    1  LIG11       0.2574
     25 C          -6.1126   -1.4513   -4.8472 C.ar    1  LIG11       0.2480
     26 C           2.3304    1.6443    0.6721 C.ar    1  LIG11       0.0602
     27 C           1.0568    2.2110    0.6115 C.ar    1  LIG11       0.0510
     28 C           3.4607    2.3802    1.3214 C.3     1  LIG11      -0.0208
     29 C           2.8887   -2.1018   -0.5533 C.3     1  LIG11       0.0805
     30 C          -7.4844   -2.4254   -6.1352 C.ar    1  LIG11       0.2047
     31 H          -0.6362   -0.9947   -1.7197 H       1  LIG11       0.1754
     32 H          -1.6447    0.5107    2.5558 H       1  LIG11       0.0638
     33 H          -2.9437    0.8335   -2.3731 H       1  LIG11       0.0624
     34 H          -6.3404   -0.7644   -0.2585 H       1  LIG11       0.0624
     35 H          -3.8300   -0.0698   -4.4750 H       1  LIG11       0.0625
     36 H          -7.2488   -1.6356   -2.3577 H       1  LIG11       0.0625
     37 H          -3.1845    2.1944    3.5353 H       1  LIG11       0.0633
     38 H          -5.2646    2.7738    2.2755 H       1  LIG11       0.0830
     39 H           0.8549    3.1929    1.0287 H       1  LIG11       0.0848
     40 H           4.3873    1.8001    1.2634 H       1  LIG11       0.0293
     41 H           3.6275    3.3387    0.8207 H       1  LIG11       0.0293
     42 H           3.2375    2.5604    2.3778 H       1  LIG11       0.0293
     43 H           2.8905   -3.1142   -0.9681 H       1  LIG11       0.0660
     44 H           3.7679   -1.5794   -0.9456 H       1  LIG11       0.0660
     45 H           2.9370   -2.1889    0.5381 H       1  LIG11       0.0660
     46 H          -8.3834   -2.9517   -6.4130 H       1  LIG11       0.1272
@<TRIPOS>BOND
     1     1     2    2
     2     1     3    2
     3     1     6    1
     4     1    12    1
     5     4    24    1
     6     4    29    1
     7     5    25   ar
     8     5    30   ar
     9     6    18    1
    10     7    13   ar
    11     7    23   ar
    12     8    18   ar
    13     8    27   ar
    14     9    24   ar
    15     9    26   ar
    16    10    11   ar
    17    10    25   ar
    18    11    30   ar
    19    12    13   ar
    20    12    15   ar
    21    13    14    1
    22    14    16   ar
    23    14    17   ar
    24    15    22   ar
    25    16    20   ar
    26    17    21   ar
    27    18    24   ar
    28    19    20   ar
    29    19    21   ar
    30    19    25    1
    31    22    23   ar
    32    26    27   ar
    33    26    28    1
    34     6    31    1
    35    15    32    1
    36    16    33    1
    37    17    34    1
    38    20    35    1
    39    21    36    1
    40    22    37    1
    41    23    38    1
    42    27    39    1
    43    28    40    1
    44    28    41    1
    45    28    42    1
    46    29    43    1
    47    29    44    1
    48    29    45    1
    49    30    46    1
@<TRIPOS>MOLECULE
16219006
 85 88 0 0 0
SMALL
GASTEIGER

@<TRIPOS>ATOM
      1 O           4.1091   -0.9340    2.2259 O.2     1  PRO11      -0.2738
      2 O           3.3174    1.2434   -1.4275 O.2     5  ASP55      -0.2735
      3 O           2.0085   -1.7668   -1.7645 O.2     2  VAL22      -0.2738
      4 O          -0.3062    2.7359    1.4969 O.2     4  TRP44      -0.2738
      5 O          -0.2716   -1.2156    1.7426 O.2     3  LEU33      -0.2738
      6 OD1         0.6349    5.1657   -3.3117 O.co2   5  ASP55      -0.5497
      7 OD2        -0.6294    4.2654   -1.6462 O.co2   5  ASP55      -0.5497
      8 N           3.4713    1.8905    0.7298 N.am    1  PRO11      -0.2884
      9 N           4.2015   -1.1060   -0.0573 N.am    2  VAL22      -0.3022
     10 N           0.5097    1.8373   -0.4618 N.am    5  ASP55      -0.3021
     11 N           1.2122   -2.8733    0.0739 N.am    3  LEU33      -0.3025
     12 N          -1.1580   -0.3089   -0.1712 N.am    4  TRP44      -0.3022
     13 NE1        -5.6763   -0.5473    0.0577 N.ar    4  TRP44      -0.3604
     14 CA          4.6707    1.0849    0.9550 C.3     1  PRO11       0.1023
     15 CB          5.2817    1.6811    2.2237 C.3     1  PRO11      -0.0243
     16 CG          4.0766    2.2223    2.9845 C.3     1  PRO11      -0.0350
     17 CD          3.1568    2.7202    1.8800 C.3     1  PRO11       0.0156
     18 C           4.3080   -0.4094    1.1327 C.2     1  PRO11       0.2342
     19 C           2.8794    1.9588   -0.5141 C.2     5  ASP55       0.2369
     20 CA          3.6371   -2.4544   -0.0924 C.3     2  VAL22       0.1017
     21 CA          1.5852    2.7976   -0.6743 C.3     5  ASP55       0.1047
     22 CB          4.5348   -3.4497   -0.8629 C.3     2  VAL22      -0.0197
     23 CA         -0.1706   -2.5498   -0.2732 C.3     3  LEU33       0.0996
     24 C           2.2239   -2.3237   -0.6924 C.2     2  VAL22       0.2342
     25 CB          1.5399    3.3933   -2.0759 C.3     5  ASP55       0.0138
     26 CA         -1.5747    0.9474    0.4675 C.3     4  TRP44       0.1034
     27 CB         -1.1082   -3.7046    0.0930 C.3     3  LEU33      -0.0236
     28 CG         -2.5794   -3.4787   -0.3113 C.3     3  LEU33      -0.0446
     29 C          -0.3813    1.9120    0.5863 C.2     4  TRP44       0.2343
     30 CB         -2.7108    1.6219   -0.3201 C.3     4  TRP44       0.0013
     31 C          -0.5266   -1.2967    0.5418 C.2     3  LEU33       0.2340
     32 CG1         4.7906   -3.0742   -2.3246 C.3     2  VAL22      -0.0605
     33 CG2         3.9768   -4.8760   -0.7849 C.3     2  VAL22      -0.0605
     34 CG         -3.9211    0.7305   -0.4553 C.ar    4  TRP44      -0.0201
     35 CG          0.4068    4.3731   -2.3531 C.2     5  ASP55       0.0440
     36 CD1        -2.7486   -3.3175   -1.8231 C.3     3  LEU33      -0.0626
     37 CD2        -3.4387   -4.6435    0.1817 C.3     3  LEU33      -0.0626
     38 CD2        -4.4613    0.1781   -1.6633 C.ar    4  TRP44       0.0029
     39 CD1        -4.7114    0.2682    0.5802 C.ar    4  TRP44       0.0060
     40 CE2        -5.5471   -0.6248   -1.3089 C.ar    4  TRP44       0.0467
     41 CE3        -4.1238    0.2780   -3.0288 C.ar    4  TRP44      -0.0523
     42 CZ2        -6.3054   -1.3380   -2.2461 C.ar    4  TRP44      -0.0378
     43 CZ3        -4.8723   -0.4267   -3.9805 C.ar    4  TRP44      -0.0611
     44 CH2        -5.9453   -1.2245   -3.5921 C.ar    4  TRP44      -0.0598
     45 H           4.0162   -0.5209   -0.8808 H       2  VAL22       0.1495
     46 H           0.4026    1.1064   -1.1503 H       5  ASP55       0.1495
     47 H           1.3938   -2.9155    1.0698 H       3  LEU33       0.1495
     48 H          -1.2725   -0.3914   -1.1740 H       4  TRP44       0.1495
     49 HE1        -6.3841   -1.0269    0.5940 H       4  TRP44       0.1653
     50 HA          5.3633    1.1793    0.1103 H       1  PRO11       0.0597
     51 HB1         5.9440    2.5135    1.9556 H       1  PRO11       0.0288
     52 HB2         5.8614    0.9650    2.8142 H       1  PRO11       0.0288
     53 HG1         4.3435    3.0100    3.6945 H       1  PRO11       0.0281
     54 HG2         3.5900    1.4142    3.5427 H       1  PRO11       0.0281
     55 HD1         2.1058    2.6318    2.1557 H       1  PRO11       0.0465
     56 HD2         3.3773    3.7608    1.6184 H       1  PRO11       0.0465
     57 HA          3.5442   -2.8221    0.9355 H       2  VAL22       0.0597
     58 HA          1.5384    3.5971    0.0694 H       5  ASP55       0.0598
     59 HB          5.5123   -3.4574   -0.3624 H       2  VAL22       0.0318
     60 HA         -0.2281   -2.3352   -1.3443 H       3  LEU33       0.0594
     61 HB1         1.4720    2.6021   -2.8338 H       5  ASP55       0.0348
     62 HB2         2.4834    3.9247   -2.2600 H       5  ASP55       0.0348
     63 HA         -1.8996    0.7095    1.4882 H       4  TRP44       0.0598
     64 HB1        -1.0601   -3.8814    1.1762 H       3  LEU33       0.0290
     65 HB2        -0.7395   -4.6253   -0.3799 H       3  LEU33       0.0290
     66 HG         -2.9513   -2.5704    0.1765 H       3  LEU33       0.0296
     67 HB1        -2.3543    1.9092   -1.3169 H       4  TRP44       0.0337
     68 HB2        -3.0096    2.5528    0.1783 H       4  TRP44       0.0337
     69 HG11        3.8784   -3.1258   -2.9261 H       2  VAL22       0.0233
     70 HG12        5.5140   -3.7654   -2.7722 H       2  VAL22       0.0233
     71 HG13        5.2069   -2.0659   -2.4114 H       2  VAL22       0.0233
     72 HG21        3.0175   -4.9643   -1.3055 H       2  VAL22       0.0233
     73 HG22        3.8299   -5.1824    0.2558 H       2  VAL22       0.0233
     74 HG23        4.6706   -5.5884   -1.2453 H       2  VAL22       0.0233
     75 HD11       -2.2968   -4.1550   -2.3649 H       3  LEU33       0.0232
     76 HD12       -2.2879   -2.3928   -2.1821 H       3  LEU33       0.0232
     77 HD13       -3.8081   -3.2757   -2.0936 H       3  LEU33       0.0232
     78 HD21       -3.1385   -5.5860   -0.2879 H       3  LEU33       0.0232
     79 HD22       -4.4954   -4.4696   -0.0493 H       3  LEU33       0.0232
     80 HD23       -3.3510   -4.7597    1.2672 H       3  LEU33       0.0232
     81 HD1        -4.6535    0.4422    1.6465 H       4  TRP44       0.0810
     82 HE3        -3.2965    0.9078   -3.3481 H       4  TRP44       0.0624
     83 HZ2        -7.1438   -1.9565   -1.9452 H       4  TRP44       0.0638
     84 HZ3        -4.6122   -0.3410   -5.0328 H       4  TRP44       0.0618
     85 HH2        -6.5148   -1.7623   -4.3460 H       4  TRP44       0.0618
@<TRIPOS>BOND
     1     1    18    2
     2     2    19    2
     3     3    24    2
     4     4    29    2
     5     5    31    2
     6     6    35   ar
     7     7    35   ar
     8     8    14    1
     9     8    17    1
    10     8    19   am
    11     9    18   am
    12     9    20    1
    13    10    21    1
    14    10    29   am
    15    11    23    1
    16    11    24   am
    17    12    26    1
    18    12    31   am
    19    13    39   ar
    20    13    40   ar
    21    14    15    1
    22    14    18    1
    23    15    16    1
    24    16    17    1
    25    19    21    1
    26    20    22    1
    27    20    24    1
    28    21    25    1
    29    22    32    1
    30    22    33    1
    31    23    27    1
    32    23    31    1
    33    25    35    1
    34    26    29    1
    35    26    30    1
    36    27    28    1
    37    28    36    1
    38    28    37    1
    39    30    34    1
    40    34    38   ar
    41    34    39   ar
    42    38    40   ar
    43    38    41   ar
    44    40    42   ar
    45    41    43   ar
    46    42    44   ar
    47    43    44   ar
    48     9    45    1
    49    10    46    1
    50    11    47    1
    51    12    48    1
    52    13    49    1
    53    14    50    1
    54    15    51    1
    55    15    52    1
    56    16    53    1
    57    16    54    1
    58    17    55    1
    59    17    56    1
    60    20    57    1
    61    21    58    1
    62    22    59    1
    63    23    60    1
    64    25    61    1
    65    25    62    1
    66    26    63    1
    67    27    64    1
    68    27    65    1
    69    28    66    1
    70    30    67    1
    71    30    68    1
    72    32    69    1
    73    32    70    1
    74    32    71    1
    75    33    72    1
    76    33    73    1
    77    33    74    1
    78    36    75    1
    79    36    76    1
    80    36    77    1
    81    37    78    1
    82    37    79    1
    83    37    80    1
    84    39    81    1
    85    41    82    1
    86    42    83    1
    87    43    84    1
    88    44    85    1
