@<TRIPOS>MOLECULE
16004692
 52 54 0 0 0
SMALL
GASTEIGER

@<TRIPOS>ATOM
      1 BR         -6.7815    2.5237    4.1653 Br      1  LIG11      -0.0503
      2 BR         -6.9205   -1.1282    3.3725 Br      1  LIG11      -0.0472
      3 S          -0.8090    2.1056    0.3985 S.O2    1  LIG11       0.1104
      4 O          -6.2664    0.4068   -2.4987 O.3     1  LIG11      -0.4724
      5 O          -1.9022    2.6450   -1.1968 O.2     1  LIG11      -0.1381
      6 O          -1.2933    2.2305    1.2247 O.2     1  LIG11      -0.1381
      7 O          -9.0522   -1.5097   -2.7520 O.3     1  LIG11      -0.4590
      8 N           0.2924    1.8107    0.1763 N.3     1  LIG11      -0.1771
      9 N          -1.6337    0.3905    0.1565 N.pl3   1  LIG11      -0.1889
     10 N          -1.9289   -0.5901   -2.1346 N.ar    1  LIG11      -0.2186
     11 N          -4.1454   -0.5388   -3.5615 N.ar    1  LIG11      -0.2008
     12 N          -8.5781   -2.1812   -0.6957 N.ar    1  LIG11      -0.2022
     13 N          -8.5152    0.5863   -1.0919 N.ar    1  LIG11      -0.2022
     14 C           0.7527    2.7855   -0.7739 C.3     1  LIG11       0.0185
     15 C          -3.9259    0.3598   -1.2123 C.ar    1  LIG11       0.0848
     16 C          -2.8479    0.3699   -1.1480 C.ar    1  LIG11       0.1532
     17 C           2.0349    2.4176   -0.8798 C.3     1  LIG11      -0.0416
     18 C          -4.7635    0.3117    0.3694 C.ar    1  LIG11      -0.0094
     19 C          -4.4614   -0.1786   -2.0175 C.ar    1  LIG11       0.2276
     20 C           3.2139    2.4078    0.6755 C.3     1  LIG11      -0.0641
     21 C          -4.0977    0.9695    1.4022 C.ar    1  LIG11      -0.0527
     22 C          -5.5375    0.2519    0.5808 C.ar    1  LIG11      -0.0527
     23 C          -6.4849   -0.6411   -3.4949 C.3     1  LIG11       0.1252
     24 C          -4.8639    2.2998    2.0032 C.ar    1  LIG11      -0.0472
     25 C          -6.5356    0.5375    1.6833 C.ar    1  LIG11      -0.0472
     26 C          -2.6926   -0.9220   -2.9976 C.ar    1  LIG11       0.1219
     27 C          -8.2688   -0.2850   -3.3259 C.3     1  LIG11       0.1267
     28 C          -6.1977    1.5477    2.4514 C.ar    1  LIG11       0.0179
     29 C          -8.2407   -0.9597   -0.9740 C.ar    1  LIG11       0.3180
     30 C          -7.5252   -2.3110    1.2376 C.ar    1  LIG11       0.0483
     31 C          -7.3307    0.3874    0.5637 C.ar    1  LIG11       0.0483
     32 C          -7.6213   -1.0493    0.9792 C.ar    1  LIG11       0.0543
     33 H           0.4354    0.4063   -0.5663 H       1  LIG11       0.1493
     34 H          -1.3906   -0.3909    0.6771 H       1  LIG11       0.1763
     35 H           0.7954    3.6770    0.0264 H       1  LIG11       0.0442
     36 H           0.7442    2.9746   -1.5018 H       1  LIG11       0.0442
     37 H           2.8844    3.2796   -1.2067 H       1  LIG11       0.0275
     38 H           2.5177    1.5959   -1.3117 H       1  LIG11       0.0275
     39 H           2.9785    3.2280    1.1078 H       1  LIG11       0.0230
     40 H           4.1615    2.2975    0.4665 H       1  LIG11       0.0230
     41 H           2.9181    1.5476    1.0332 H       1  LIG11       0.0230
     42 H          -3.6463    1.8742    1.1755 H       1  LIG11       0.0624
     43 H          -6.0961   -1.0688   -0.4148 H       1  LIG11       0.0624
     44 H          -6.4876   -1.3874   -3.6267 H       1  LIG11       0.0731
     45 H          -6.5675    0.1758   -4.2249 H       1  LIG11       0.0731
     46 H          -4.4374    2.6541    2.8177 H       1  LIG11       0.0629
     47 H          -7.9647    0.7939    1.9845 H       1  LIG11       0.0629
     48 H          -2.4121   -1.0929   -3.9998 H       1  LIG11       0.1049
     49 H          -8.4716    0.7390   -3.0383 H       1  LIG11       0.0732
     50 H          -8.7345   -0.6164   -4.0198 H       1  LIG11       0.0732
     51 H          -7.7301   -3.1781    1.5400 H       1  LIG11       0.0843
     52 H          -7.3934    1.4817    0.1041 H       1  LIG11       0.0843
@<TRIPOS>BOND
     1     1    28    1
     2     2    32    1
     3     3     5    2
     4     3     6    2
     5     3     8    1
     6     3     9    1
     7     4    19    1
     8     4    23    1
     9     7    27    1
    10     7    29    1
    11     8    14    1
    12     9    16    1
    13    10    16   ar
    14    10    26   ar
    15    11    19   ar
    16    11    26   ar
    17    12    29   ar
    18    12    30   ar
    19    13    29   ar
    20    13    31   ar
    21    14    17    1
    22    15    16   ar
    23    15    18    1
    24    15    19   ar
    25    17    20    1
    26    18    21   ar
    27    18    22   ar
    28    21    24   ar
    29    22    25   ar
    30    23    27    1
    31    24    28   ar
    32    25    28   ar
    33    30    32   ar
    34    31    32   ar
    35     8    33    1
    36     9    34    1
    37    14    35    1
    38    14    36    1
    39    17    37    1
    40    17    38    1
    41    20    39    1
    42    20    40    1
    43    20    41    1
    44    21    42    1
    45    22    43    1
    46    23    44    1
    47    23    45    1
    48    24    46    1
    49    25    47    1
    50    26    48    1
    51    27    49    1
    52    27    50    1
    53    30    51    1
    54    31    52    1
@<TRIPOS>MOLECULE
16219006
 85 88 0 0 0
SMALL
GASTEIGER

@<TRIPOS>ATOM
      1 O           4.2205   -0.9240    2.2308 O.2     1  PRO11      -0.2738
      2 O           3.3155    1.2417   -1.4082 O.2     5  ASP55      -0.2735
      3 O           2.0088   -1.7500   -1.7327 O.2     2  VAL22      -0.2738
      4 O          -0.3273    2.7090    1.5068 O.2     4  TRP44      -0.2738
      5 O          -0.3236   -1.2528    1.7977 O.2     3  LEU33      -0.2738
      6 OD1         0.6842    5.2183   -3.2226 O.co2   5  ASP55      -0.5497
      7 OD2        -0.6597    4.2020   -1.6883 O.co2   5  ASP55      -0.5497
      8 N           3.4706    1.8985    0.7442 N.am    1  PRO11      -0.2884
      9 N           4.2255   -1.0679   -0.0569 N.am    2  VAL22      -0.3022
     10 N           0.5023    1.8094   -0.4451 N.am    5  ASP55      -0.3021
     11 N           1.2499   -2.8581    0.1158 N.am    3  LEU33      -0.3025
     12 N          -1.1618   -0.3473   -0.1413 N.am    4  TRP44      -0.3022
     13 NE1        -5.3402   -0.8223   -1.2950 N.ar    4  TRP44      -0.3604
     14 CA          4.6896    1.1212    0.9656 C.3     1  PRO11       0.1023
     15 CB          5.2867    1.7273    2.2366 C.3     1  PRO11      -0.0243
     16 CG          4.0682    2.2373    2.9983 C.3     1  PRO11      -0.0350
     17 CD          3.1417    2.7234    1.8944 C.3     1  PRO11       0.0156
     18 C           4.3626   -0.3815    1.1363 C.2     1  PRO11       0.2342
     19 C           2.8736    1.9547   -0.4968 C.2     5  ASP55       0.2369
     20 CA          3.6693   -2.4159   -0.0811 C.3     2  VAL22       0.1017
     21 CA          1.5712    2.7782   -0.6601 C.3     5  ASP55       0.1047
     22 CB          4.5291   -3.4317   -0.8690 C.3     2  VAL22      -0.0197
     23 CA         -0.1369   -2.5667   -0.2290 C.3     3  LEU33       0.0996
     24 C           2.2474   -2.3032   -0.6576 C.2     2  VAL22       0.2342
     25 CB          1.5280    3.3622   -2.0680 C.3     5  ASP55       0.0138
     26 CA         -1.5936    0.9195    0.4690 C.3     4  TRP44       0.1034
     27 CB         -1.0691   -3.7334    0.1063 C.3     3  LEU33      -0.0236
     28 CG         -0.7502   -5.0352   -0.6566 C.3     3  LEU33      -0.0446
     29 C          -0.3968    1.8835    0.5976 C.2     4  TRP44       0.2343
     30 CB         -2.6968    1.5862   -0.3718 C.3     4  TRP44       0.0013
     31 C          -0.5430   -1.3303    0.5906 C.2     3  LEU33       0.2340
     32 CG1         5.8619   -3.6827   -0.1546 C.3     2  VAL22      -0.0605
     33 CG2         4.7980   -3.0423   -2.3258 C.3     2  VAL22      -0.0605
     34 CG         -3.9118    0.7058   -0.5203 C.ar    4  TRP44      -0.0201
     35 CG          0.4111    4.3606   -2.3338 C.2     5  ASP55       0.0440
     36 CD1        -1.7362   -6.1290   -0.2414 C.3     3  LEU33      -0.0626
     37 CD2        -0.7883   -4.8543   -2.1754 C.3     3  LEU33      -0.0626
     38 CD2        -5.0277    0.6203    0.3733 C.ar    4  TRP44       0.0029
     39 CD1        -4.1546   -0.1890   -1.5468 C.ar    4  TRP44       0.0060
     40 CE2        -5.8953   -0.3507   -0.1292 C.ar    4  TRP44       0.0467
     41 CE3        -5.3786    1.2783    1.5696 C.ar    4  TRP44      -0.0523
     42 CZ2        -7.0907   -0.7043    0.5086 C.ar    4  TRP44      -0.0378
     43 CZ3        -6.5750    0.9445    2.2154 C.ar    4  TRP44      -0.0611
     44 CH2        -7.4153   -0.0355    1.6924 C.ar    4  TRP44      -0.0598
     45 H           4.0147   -0.4781   -0.8707 H       2  VAL22       0.1495
     46 H           0.3917    1.0923   -1.1453 H       5  ASP55       0.1495
     47 H           1.4382   -2.8960    1.1145 H       3  LEU33       0.1495
     48 H          -1.1880   -0.4084   -1.1504 H       4  TRP44       0.1495
     49 HE1        -5.7579   -1.5297   -1.8820 H       4  TRP44       0.1653
     50 HA          5.3786    1.2344    0.1206 H       1  PRO11       0.0597
     51 HB1         5.9284    2.5765    1.9712 H       1  PRO11       0.0288
     52 HB2         5.8833    1.0242    2.8252 H       1  PRO11       0.0288
     53 HG1         4.3159    3.0254    3.7147 H       1  PRO11       0.0281
     54 HG2         3.5975    1.4145    3.5487 H       1  PRO11       0.0281
     55 HD1         2.0917    2.6189    2.1680 H       1  PRO11       0.0465
     56 HD2         3.3477    3.7668    1.6333 H       1  PRO11       0.0465
     57 HA          3.5830   -2.7863    0.9475 H       2  VAL22       0.0597
     58 HA          1.5162    3.5818    0.0794 H       5  ASP55       0.0598
     59 HB          3.9849   -4.3862   -0.8864 H       2  VAL22       0.0318
     60 HA         -0.2174   -2.3240   -1.2932 H       3  LEU33       0.0594
     61 HB1         1.4360    2.5673   -2.8189 H       5  ASP55       0.0348
     62 HB2         2.4809    3.8721   -2.2652 H       5  ASP55       0.0348
     63 HA         -1.9521    0.6990    1.4820 H       4  TRP44       0.0598
     64 HB1        -2.1042   -3.4311   -0.1025 H       3  LEU33       0.0290
     65 HB2        -1.0254   -3.9369    1.1851 H       3  LEU33       0.0290
     66 HG          0.2561   -5.3725   -0.3790 H       3  LEU33       0.0296
     67 HB1        -2.3152    1.8289   -1.3726 H       4  TRP44       0.0337
     68 HB2        -2.9881    2.5416    0.0822 H       4  TRP44       0.0337
     69 HG11        6.4873   -2.7838   -0.1424 H       2  VAL22       0.0233
     70 HG12        6.4266   -4.4765   -0.6561 H       2  VAL22       0.0233
     71 HG13        5.6978   -3.9990    0.8810 H       2  VAL22       0.0233
     72 HG21        5.2926   -2.0692   -2.4021 H       2  VAL22       0.0233
     73 HG22        3.8727   -3.0072   -2.9069 H       2  VAL22       0.0233
     74 HG23        5.4462   -3.7836   -2.8073 H       2  VAL22       0.0233
     75 HD11       -2.7636   -5.8592   -0.5080 H       3  LEU33       0.0232
     76 HD12       -1.6981   -6.2971    0.8400 H       3  LEU33       0.0232
     77 HD13       -1.4955   -7.0767   -0.7347 H       3  LEU33       0.0232
     78 HD21       -1.7432   -4.4289   -2.5012 H       3  LEU33       0.0232
     79 HD22       -0.6529   -5.8143   -2.6851 H       3  LEU33       0.0232
     80 HD23        0.0149   -4.1951   -2.5190 H       3  LEU33       0.0232
     81 HD1        -3.5790   -0.4271   -2.4309 H       4  TRP44       0.0810
     82 HE3        -4.7299    2.0454    1.9837 H       4  TRP44       0.0624
     83 HZ2        -7.7474   -1.4650    0.1011 H       4  TRP44       0.0638
     84 HZ3        -6.8464    1.4593    3.1333 H       4  TRP44       0.0618
     85 HH2        -8.3389   -0.2817    2.2101 H       4  TRP44       0.0618
@<TRIPOS>BOND
     1     1    18    2
     2     2    19    2
     3     3    24    2
     4     4    29    2
     5     5    31    2
     6     6    35   ar
     7     7    35   ar
     8     8    14    1
     9     8    17    1
    10     8    19   am
    11     9    18   am
    12     9    20    1
    13    10    21    1
    14    10    29   am
    15    11    23    1
    16    11    24   am
    17    12    26    1
    18    12    31   am
    19    13    39   ar
    20    13    40   ar
    21    14    15    1
    22    14    18    1
    23    15    16    1
    24    16    17    1
    25    19    21    1
    26    20    22    1
    27    20    24    1
    28    21    25    1
    29    22    32    1
    30    22    33    1
    31    23    27    1
    32    23    31    1
    33    25    35    1
    34    26    29    1
    35    26    30    1
    36    27    28    1
    37    28    36    1
    38    28    37    1
    39    30    34    1
    40    34    38   ar
    41    34    39   ar
    42    38    40   ar
    43    38    41   ar
    44    40    42   ar
    45    41    43   ar
    46    42    44   ar
    47    43    44   ar
    48     9    45    1
    49    10    46    1
    50    11    47    1
    51    12    48    1
    52    13    49    1
    53    14    50    1
    54    15    51    1
    55    15    52    1
    56    16    53    1
    57    16    54    1
    58    17    55    1
    59    17    56    1
    60    20    57    1
    61    21    58    1
    62    22    59    1
    63    23    60    1
    64    25    61    1
    65    25    62    1
    66    26    63    1
    67    27    64    1
    68    27    65    1
    69    28    66    1
    70    30    67    1
    71    30    68    1
    72    32    69    1
    73    32    70    1
    74    32    71    1
    75    33    72    1
    76    33    73    1
    77    33    74    1
    78    36    75    1
    79    36    76    1
    80    36    77    1
    81    37    78    1
    82    37    79    1
    83    37    80    1
    84    39    81    1
    85    41    82    1
    86    42    83    1
    87    43    84    1
    88    44    85    1
