@<TRIPOS>MOLECULE
159594
 75 78 0 0 0
SMALL
GASTEIGER

@<TRIPOS>ATOM
      1 O          -2.9162    3.0590    1.7618 O.co2   1  LIG11      -0.5493
      2 O          -4.4174    3.2200    0.0465 O.co2   1  LIG11      -0.5493
      3 O           3.2166    4.9417   -1.2219 O.3     1  LIG11      -0.4526
      4 O           0.3021   -2.0685    1.9387 O.2     1  LIG11      -0.2697
      5 O           3.0020    4.3843   -3.5572 O.3     1  LIG11      -0.4526
      6 O          -6.2224   -1.6332   -3.8315 O.3     1  LIG11      -0.4951
      7 N          -1.4323    0.1052    0.0480 N.4     1  LIG11       0.2481
      8 N           0.1553   -2.6778   -0.2764 N.am    1  LIG11      -0.2971
      9 C          -2.3033    2.3066   -0.3732 C.3     1  LIG11       0.0574
     10 C          -0.8511    2.4492    0.1014 C.3     1  LIG11       0.0378
     11 C          -2.7480    0.8769   -0.0678 C.3     1  LIG11       0.0143
     12 C          -0.5105    1.0949    0.7301 C.3     1  LIG11      -0.0230
     13 C           0.1679    2.8766   -0.9508 C.ar    1  LIG11      -0.0347
     14 C          -3.6735    0.2285   -1.0830 C.ar    1  LIG11       0.0011
     15 C          -1.6007   -1.2068    0.7991 C.3     1  LIG11       0.0468
     16 C          -3.2978    2.9693    0.5639 C.2     1  LIG11       0.0513
     17 C           1.2496    3.6787   -0.5279 C.ar    1  LIG11      -0.0125
     18 C          -0.3176   -2.0403    0.8728 C.2     1  LIG11       0.2608
     19 C           0.0708    2.5438   -2.3196 C.ar    1  LIG11      -0.0544
     20 C          -4.9252   -0.2414   -0.6503 C.ar    1  LIG11      -0.0498
     21 C          -3.3342    0.0650   -2.4311 C.ar    1  LIG11      -0.0498
     22 C           2.1505    4.1358   -1.4674 C.ar    1  LIG11       0.1665
     23 C           1.0061    3.0165   -3.2517 C.ar    1  LIG11      -0.0159
     24 C           2.0298    3.8165   -2.7961 C.ar    1  LIG11       0.1662
     25 C          -5.8057   -0.8742   -1.5319 C.ar    1  LIG11      -0.0195
     26 C          -4.2184   -0.5662   -3.3110 C.ar    1  LIG11      -0.0195
     27 C           1.5195   -3.2348   -0.2260 C.3     1  LIG11       0.0148
     28 C          -0.6194   -2.8522   -1.5175 C.3     1  LIG11       0.0148
     29 C          -5.4555   -1.0388   -2.8686 C.ar    1  LIG11       0.1201
     30 C           2.6342   -2.2087   -0.4684 C.3     1  LIG11      -0.0374
     31 C          -0.6840   -4.2841   -2.0795 C.3     1  LIG11      -0.0374
     32 C           3.7195    5.1416   -2.5588 C.3     1  LIG11       0.2332
     33 C           2.9775   -1.3752    0.7675 C.3     1  LIG11      -0.0545
     34 C          -1.0041   -5.3949   -1.0741 C.3     1  LIG11      -0.0545
     35 C           4.2405   -0.5539    0.5719 C.3     1  LIG11      -0.0652
     36 C          -2.3863   -5.2854   -0.4551 C.3     1  LIG11      -0.0652
     37 C          -7.5519   -1.9809   -3.4605 C.3     1  LIG11       0.0788
     38 H          -1.0705   -0.0750   -0.8906 H       1  LIG11       0.2045
     39 H          -2.4821    2.6424   -1.3990 H       1  LIG11       0.0427
     40 H          -0.7742    3.2151    0.8841 H       1  LIG11       0.0409
     41 H          -3.2011    0.7553    0.9276 H       1  LIG11       0.0911
     42 H          -0.7463    1.0804    1.8000 H       1  LIG11       0.0821
     43 H           0.5181    0.7687    0.5618 H       1  LIG11       0.0821
     44 H          -1.9178   -0.9608    1.8196 H       1  LIG11       0.0913
     45 H          -2.4093   -1.7780    0.3389 H       1  LIG11       0.0913
     46 H           1.3654    3.9783    0.5110 H       1  LIG11       0.0658
     47 H          -0.7544    1.9517   -2.6969 H       1  LIG11       0.0622
     48 H          -5.2459   -0.0881    0.3808 H       1  LIG11       0.0623
     49 H          -2.4008    0.4449   -2.8302 H       1  LIG11       0.0623
     50 H           0.9137    2.7887   -4.3080 H       1  LIG11       0.0655
     51 H          -6.7627   -1.2061   -1.1420 H       1  LIG11       0.0654
     52 H          -3.9545   -0.6692   -4.3613 H       1  LIG11       0.0654
     53 H           1.6643   -3.7308    0.7411 H       1  LIG11       0.0464
     54 H           1.6165   -4.0169   -0.9828 H       1  LIG11       0.0464
     55 H          -1.6433   -2.5032   -1.3812 H       1  LIG11       0.0464
     56 H          -0.1668   -2.1935   -2.2678 H       1  LIG11       0.0464
     57 H           3.5341   -2.7634   -0.7636 H       1  LIG11       0.0280
     58 H           2.3739   -1.5514   -1.3064 H       1  LIG11       0.0280
     59 H          -1.4290   -4.3044   -2.8855 H       1  LIG11       0.0280
     60 H           0.2702   -4.5249   -2.5634 H       1  LIG11       0.0280
     61 H           3.6486    6.2080   -2.8069 H       1  LIG11       0.1166
     62 H           4.7738    4.8447   -2.5850 H       1  LIG11       0.1166
     63 H           2.1595   -0.6896    0.9979 H       1  LIG11       0.0263
     64 H           3.1135   -2.0298    1.6365 H       1  LIG11       0.0263
     65 H          -0.9331   -6.3589   -1.5935 H       1  LIG11       0.0263
     66 H          -0.2532   -5.4240   -0.2777 H       1  LIG11       0.0263
     67 H           4.1418    0.1223   -0.2826 H       1  LIG11       0.0230
     68 H           4.4363    0.0498    1.4642 H       1  LIG11       0.0230
     69 H           5.1068   -1.2019    0.4060 H       1  LIG11       0.0230
     70 H          -3.1633   -5.3115   -1.2250 H       1  LIG11       0.0230
     71 H          -2.5566   -6.1279    0.2238 H       1  LIG11       0.0230
     72 H          -2.4970   -4.3641    0.1222 H       1  LIG11       0.0230
     73 H          -8.0590   -2.3623   -4.3518 H       1  LIG11       0.0660
     74 H          -7.5509   -2.7785   -2.7102 H       1  LIG11       0.0660
     75 H          -8.1104   -1.1070   -3.1083 H       1  LIG11       0.0660
@<TRIPOS>BOND
     1     1    16   ar
     2     2    16   ar
     3     3    22    1
     4     3    32    1
     5     4    18    2
     6     5    24    1
     7     5    32    1
     8     6    29    1
     9     6    37    1
    10     7    11    1
    11     7    12    1
    12     7    15    1
    13     8    18   am
    14     8    27    1
    15     8    28    1
    16     9    10    1
    17     9    11    1
    18     9    16    1
    19    10    12    1
    20    10    13    1
    21    11    14    1
    22    13    17   ar
    23    13    19   ar
    24    14    20   ar
    25    14    21   ar
    26    15    18    1
    27    17    22   ar
    28    19    23   ar
    29    20    25   ar
    30    21    26   ar
    31    22    24   ar
    32    23    24   ar
    33    25    29   ar
    34    26    29   ar
    35    27    30    1
    36    28    31    1
    37    30    33    1
    38    31    34    1
    39    33    35    1
    40    34    36    1
    41     7    38    1
    42     9    39    1
    43    10    40    1
    44    11    41    1
    45    12    42    1
    46    12    43    1
    47    15    44    1
    48    15    45    1
    49    17    46    1
    50    19    47    1
    51    20    48    1
    52    21    49    1
    53    23    50    1
    54    25    51    1
    55    26    52    1
    56    27    53    1
    57    27    54    1
    58    28    55    1
    59    28    56    1
    60    30    57    1
    61    30    58    1
    62    31    59    1
    63    31    60    1
    64    32    61    1
    65    32    62    1
    66    33    63    1
    67    33    64    1
    68    34    65    1
    69    34    66    1
    70    35    67    1
    71    35    68    1
    72    35    69    1
    73    36    70    1
    74    36    71    1
    75    36    72    1
    76    37    73    1
    77    37    74    1
    78    37    75    1
@<TRIPOS>MOLECULE
16219006
 85 88 0 0 0
SMALL
GASTEIGER

@<TRIPOS>ATOM
      1 O           4.1499   -1.0494    2.2394 O.2     1  PRO11      -0.2738
      2 O           2.8343    0.8273   -1.2519 O.2     5  ASP55      -0.2735
      3 O           2.1121   -2.4872   -1.9349 O.2     2  VAL22      -0.2738
      4 O          -0.4966    2.9240    1.3155 O.2     4  TRP44      -0.2738
      5 O          -0.3034   -1.0419    1.7179 O.2     3  LEU33      -0.2738
      6 OD1         2.6221    5.5642   -1.3565 O.co2   5  ASP55      -0.5497
      7 OD2         4.0430    3.9091   -2.0231 O.co2   5  ASP55      -0.5497
      8 N           3.3696    1.7641    0.7450 N.am    1  PRO11      -0.2884
      9 N           4.1127   -1.2350   -0.0428 N.am    2  VAL22      -0.3022
     10 N           0.3212    2.0257   -0.6384 N.am    5  ASP55      -0.3021
     11 N           1.2421   -2.7094    0.1703 N.am    3  LEU33      -0.3025
     12 N          -1.2164   -0.2313   -0.2218 N.am    4  TRP44      -0.3022
     13 NE1        -5.7470   -0.5938    0.0227 N.ar    4  TRP44      -0.3604
     14 CA          4.5865    0.9706    0.9085 C.3     1  PRO11       0.1023
     15 CB          5.2932    1.6025    2.1131 C.3     1  PRO11      -0.0243
     16 CG          4.1625    2.2613    2.8940 C.3     1  PRO11      -0.0350
     17 CD          3.2426    2.7608    1.7940 C.3     1  PRO11       0.0156
     18 C           4.2696   -0.5269    1.1322 C.2     1  PRO11       0.2342
     19 C           2.6797    1.7576   -0.4471 C.2     5  ASP55       0.2369
     20 CA          3.6809   -2.6285   -0.0747 C.3     2  VAL22       0.1017
     21 CA          1.5651    2.8129   -0.6665 C.3     5  ASP55       0.1047
     22 CB          4.6583   -3.5058   -0.8862 C.3     2  VAL22      -0.0197
     23 CA         -0.1225   -2.4313   -0.2562 C.3     3  LEU33       0.0996
     24 C           2.2860   -2.6183   -0.7243 C.2     2  VAL22       0.2342
     25 CB          1.7248    3.4931   -2.0152 C.3     5  ASP55       0.0138
     26 CA         -1.6684    1.0201    0.3972 C.3     4  TRP44       0.1034
     27 CB         -1.0738   -3.5867    0.0762 C.3     3  LEU33      -0.0236
     28 CG         -0.7466   -4.9129   -0.6424 C.3     3  LEU33      -0.0446
     29 C          -0.5254    2.0497    0.4520 C.2     4  TRP44       0.2343
     30 CB         -2.8452    1.6450   -0.3650 C.3     4  TRP44       0.0013
     31 C          -0.5456   -1.1752    0.5190 C.2     3  LEU33       0.2340
     32 CG1         4.1552   -4.9538   -0.9761 C.3     2  VAL22      -0.0605
     33 CG2         6.0560   -3.5036   -0.2583 C.3     2  VAL22      -0.0605
     34 CG         -4.0162    0.7140   -0.4912 C.ar    4  TRP44      -0.0201
     35 CG          2.9124    4.4136   -1.7863 C.2     5  ASP55       0.0440
     36 CD1        -1.7046   -6.0093   -0.1687 C.3     3  LEU33      -0.0626
     37 CD2        -0.8232   -4.7903   -2.1652 C.3     3  LEU33      -0.0626
     38 CD2        -4.5075    0.1066   -1.6919 C.ar    4  TRP44       0.0029
     39 CD1        -4.8153    0.2625    0.5414 C.ar    4  TRP44       0.0060
     40 CE2        -5.5833   -0.7086   -1.3375 C.ar    4  TRP44       0.0467
     41 CE3        -4.1334    0.1701   -3.0505 C.ar    4  TRP44      -0.0523
     42 CZ2        -6.3021   -1.4647   -2.2712 C.ar    4  TRP44      -0.0378
     43 CZ3        -4.8435   -0.5765   -3.9974 C.ar    4  TRP44      -0.0611
     44 CH2        -5.9113   -1.3822   -3.6106 C.ar    4  TRP44      -0.0598
     45 H           3.8757   -0.6580   -0.8599 H       2  VAL22       0.1495
     46 H           0.3623    1.1663   -1.1725 H       5  ASP55       0.1495
     47 H           1.4505   -2.4957    1.1450 H       3  LEU33       0.1495
     48 H          -1.3688   -0.3708   -1.2130 H       4  TRP44       0.1495
     49 HE1        -6.4545   -1.0764    0.5580 H       4  TRP44       0.1653
     50 HA          5.2143    1.0631    0.0138 H       1  PRO11       0.0597
     51 HB1         5.9874    2.3784    1.7649 H       1  PRO11       0.0288
     52 HB2         5.8625    0.8926    2.7208 H       1  PRO11       0.0288
     53 HG1         4.5074    3.0641    3.5510 H       1  PRO11       0.0281
     54 HG2         3.6468    1.5129    3.5068 H       1  PRO11       0.0281
     55 HD1         2.2062    2.8457    2.1304 H       1  PRO11       0.0465
     56 HD2         3.5796    3.7249    1.3972 H       1  PRO11       0.0465
     57 HA          3.6030   -3.0189    0.9469 H       2  VAL22       0.0597
     58 HA          1.5367    3.5501    0.1385 H       5  ASP55       0.0598
     59 HB          4.7467   -3.1124   -1.9074 H       2  VAL22       0.0318
     60 HA         -0.1527   -2.2064   -1.3267 H       3  LEU33       0.0594
     61 HB1         0.8337    4.0727   -2.2815 H       5  ASP55       0.0348
     62 HB2         1.9250    2.7882   -2.8296 H       5  ASP55       0.0348
     63 HA         -1.9556    0.7988    1.4329 H       4  TRP44       0.0598
     64 HB1        -2.1012   -3.2850   -0.1669 H       3  LEU33       0.0290
     65 HB2        -1.0600   -3.7632    1.1605 H       3  LEU33       0.0290
     66 HG          0.2704   -5.2243   -0.3742 H       3  LEU33       0.0296
     67 HB1        -2.5178    1.9621   -1.3630 H       4  TRP44       0.0337
     68 HB2        -3.1734    2.5592    0.1471 H       4  TRP44       0.0337
     69 HG11        4.0128   -5.3853    0.0200 H       2  VAL22       0.0233
     70 HG12        4.8708   -5.5808   -1.5180 H       2  VAL22       0.0233
     71 HG13        3.2022   -5.0154   -1.5103 H       2  VAL22       0.0233
     72 HG21        6.0264   -3.8657    0.7757 H       2  VAL22       0.0233
     73 HG22        6.4902   -2.4988   -0.2549 H       2  VAL22       0.0233
     74 HG23        6.7361   -4.1519   -0.8226 H       2  VAL22       0.0233
     75 HD11       -2.7430   -5.7660   -0.4203 H       3  LEU33       0.0232
     76 HD12       -1.6397   -6.1421    0.9162 H       3  LEU33       0.0232
     77 HD13       -1.4593   -6.9688   -0.6363 H       3  LEU33       0.0232
     78 HD21       -1.7999   -4.4110   -2.4844 H       3  LEU33       0.0232
     79 HD22       -0.6665   -5.7639   -2.6414 H       3  LEU33       0.0232
     80 HD23       -0.0534   -4.1171   -2.5522 H       3  LEU33       0.0232
     81 HD1        -4.7871    0.4695    1.6039 H       4  TRP44       0.0810
     82 HE3        -3.3076    0.7998   -3.3690 H       4  TRP44       0.0624
     83 HZ2        -7.1358   -2.0914   -1.9727 H       4  TRP44       0.0638
     84 HZ3        -4.5580   -0.5216   -5.0451 H       4  TRP44       0.0618
     85 HH2        -6.4519   -1.9533   -4.3620 H       4  TRP44       0.0618
@<TRIPOS>BOND
     1     1    18    2
     2     2    19    2
     3     3    24    2
     4     4    29    2
     5     5    31    2
     6     6    35   ar
     7     7    35   ar
     8     8    14    1
     9     8    17    1
    10     8    19   am
    11     9    18   am
    12     9    20    1
    13    10    21    1
    14    10    29   am
    15    11    23    1
    16    11    24   am
    17    12    26    1
    18    12    31   am
    19    13    39   ar
    20    13    40   ar
    21    14    15    1
    22    14    18    1
    23    15    16    1
    24    16    17    1
    25    19    21    1
    26    20    22    1
    27    20    24    1
    28    21    25    1
    29    22    32    1
    30    22    33    1
    31    23    27    1
    32    23    31    1
    33    25    35    1
    34    26    29    1
    35    26    30    1
    36    27    28    1
    37    28    36    1
    38    28    37    1
    39    30    34    1
    40    34    38   ar
    41    34    39   ar
    42    38    40   ar
    43    38    41   ar
    44    40    42   ar
    45    41    43   ar
    46    42    44   ar
    47    43    44   ar
    48     9    45    1
    49    10    46    1
    50    11    47    1
    51    12    48    1
    52    13    49    1
    53    14    50    1
    54    15    51    1
    55    15    52    1
    56    16    53    1
    57    16    54    1
    58    17    55    1
    59    17    56    1
    60    20    57    1
    61    21    58    1
    62    22    59    1
    63    23    60    1
    64    25    61    1
    65    25    62    1
    66    26    63    1
    67    27    64    1
    68    27    65    1
    69    28    66    1
    70    30    67    1
    71    30    68    1
    72    32    69    1
    73    32    70    1
    74    32    71    1
    75    33    72    1
    76    33    73    1
    77    33    74    1
    78    36    75    1
    79    36    76    1
    80    36    77    1
    81    37    78    1
    82    37    79    1
    83    37    80    1
    84    39    81    1
    85    41    82    1
    86    42    83    1
    87    43    84    1
    88    44    85    1
