@<TRIPOS>MOLECULE
*****
 67 70 0 0 0
SMALL
GASTEIGER

@<TRIPOS>ATOM
      1 C           7.1262   -1.4692    0.1437 C.ar    1  LIG11       0.0483
      2 C           7.0001   -2.8025   -0.1709 C.ar    1  LIG11       0.0543
      3 C           5.7925   -3.3769    0.1507 C.ar    1  LIG11       0.0483
      4 N           4.7783   -2.7022    0.7310 N.ar    1  LIG11      -0.2022
      5 N           6.1430   -0.7418    0.7164 N.ar    1  LIG11      -0.2022
      6 C          -0.7636   -3.3957   -0.5235 C.ar    1  LIG11      -0.0504
      7 C          -1.3605   -2.6608   -1.5481 C.ar    1  LIG11      -0.0583
      8 C          -1.0310   -1.3117   -1.7454 C.ar    1  LIG11      -0.0535
      9 C          -0.1144   -0.6377   -0.9156 C.ar    1  LIG11      -0.0094
     10 C           0.4747   -1.4051    0.1076 C.ar    1  LIG11      -0.0535
     11 C           0.1768   -2.7626    0.2878 C.ar    1  LIG11      -0.0583
     12 C          -6.4843    1.7391   -2.5066 C.ar    1  LIG11      -0.0561
     13 C          -5.2435    2.1001   -1.9747 C.ar    1  LIG11      -0.0348
     14 C          -4.6048    1.2552   -1.0655 C.ar    1  LIG11       0.1086
     15 C          -5.2016    0.0613   -0.6761 C.ar    1  LIG11      -0.0348
     16 C          -6.4519   -0.2844   -1.2034 C.ar    1  LIG11      -0.0561
     17 C          -8.5067    0.1467   -2.6936 C.3     1  LIG11       0.0132
     18 C          -7.1309    0.5517   -2.1162 C.ar    1  LIG11      -0.0394
     19 C          -8.2531   -0.8132   -3.8743 C.3     1  LIG11      -0.0537
     20 C          -9.3464    1.3453   -3.2290 C.3     1  LIG11       0.0533
     21 C          -9.3787   -0.5794   -1.6407 C.3     1  LIG11      -0.0537
     22 O          -9.7306    2.2527   -2.1993 O.3     1  LIG11      -0.3942
     23 S          -3.0295    1.7469   -0.4019 S.O2    1  LIG11       0.0735
     24 O          -3.1311    3.1603   -0.1079 O.2     1  LIG11      -0.1499
     25 O          -2.6376    0.7886    0.6061 O.2     1  LIG11      -0.1499
     26 N          -2.0628    1.5609   -1.7854 N.pl3   1  LIG11      -0.1988
     27 C           0.2207    0.8009   -1.1105 C.ar    1  LIG11       0.0847
     28 C           1.4993    1.3391   -0.9436 C.ar    1  LIG11       0.2276
     29 N           1.8275    2.6352   -1.1404 N.ar    1  LIG11      -0.2008
     30 C           0.8492    3.4439   -1.5396 C.ar    1  LIG11       0.1219
     31 N          -0.4057    3.0732   -1.7718 N.ar    1  LIG11      -0.2186
     32 C          -0.6796    1.7783   -1.5285 C.ar    1  LIG11       0.1524
     33 C          -1.0797   -4.8490   -0.3352 C.3     1  LIG11      -0.0397
     34 O           2.5352    0.4764   -0.6577 O.3     1  LIG11      -0.4724
     35 C           3.7577    1.0559   -0.1858 C.3     1  LIG11       0.1252
     36 C           3.9597    0.6845    1.2876 C.3     1  LIG11       0.1267
     37 O           3.9330   -0.7274    1.5189 O.3     1  LIG11      -0.4590
     38 C           4.9989   -1.4019    0.9730 C.ar    1  LIG11       0.3180
     39 BR          8.3830   -3.7711   -0.9894 Br      1  LIG11      -0.0472
     40 H           8.0404   -0.9202   -0.0625 H       1  LIG11       0.0843
     41 H           5.5853   -4.4231   -0.0535 H       1  LIG11       0.0843
     42 H          -2.0878   -3.1301   -2.2067 H       1  LIG11       0.0620
     43 H          -1.5132   -0.7971   -2.5729 H       1  LIG11       0.0624
     44 H           1.1904   -0.9612    0.7964 H       1  LIG11       0.0624
     45 H           0.6878   -3.3123    1.0758 H       1  LIG11       0.0620
     46 H          -6.9270    2.4184   -3.2305 H       1  LIG11       0.0621
     47 H          -4.7874    3.0411   -2.2744 H       1  LIG11       0.0637
     48 H          -4.7103   -0.6039    0.0313 H       1  LIG11       0.0637
     49 H          -6.8833   -1.2310   -0.8850 H       1  LIG11       0.0621
     50 H          -7.7030   -1.7070   -3.5576 H       1  LIG11       0.0239
     51 H          -9.1959   -1.1487   -4.3217 H       1  LIG11       0.0239
     52 H          -7.6650   -0.3283   -4.6627 H       1  LIG11       0.0239
     53 H          -8.8270    1.9067   -4.0122 H       1  LIG11       0.0566
     54 H         -10.2747    0.9812   -3.6855 H       1  LIG11       0.0566
     55 H          -9.4664    0.0072   -0.7190 H       1  LIG11       0.0239
     56 H         -10.3918   -0.7540   -2.0226 H       1  LIG11       0.0239
     57 H          -8.9763   -1.5626   -1.3745 H       1  LIG11       0.0239
     58 H          -8.9461    2.4434   -1.6558 H       1  LIG11       0.2094
     59 H          -2.3185    2.3249   -2.4121 H       1  LIG11       0.1753
     60 H           1.0981    4.4871   -1.6953 H       1  LIG11       0.1049
     61 H          -2.1208   -5.0592   -0.6020 H       1  LIG11       0.0278
     62 H          -0.4227   -5.4612   -0.9608 H       1  LIG11       0.0278
     63 H          -0.9478   -5.1462    0.7107 H       1  LIG11       0.0278
     64 H           4.5525    0.6400   -0.8119 H       1  LIG11       0.0731
     65 H           3.8240    2.1437   -0.2876 H       1  LIG11       0.0731
     66 H           4.8712    1.1353    1.6992 H       1  LIG11       0.0732
     67 H           3.1233    1.0938    1.8663 H       1  LIG11       0.0732
@<TRIPOS>BOND
     1     1     2   ar
     2     2     3   ar
     3     2    39    1
     4     3     4   ar
     5     4    38   ar
     6     5     1   ar
     7     6     7   ar
     8     6    33    1
     9     7     8   ar
    10     8     9   ar
    11     9    10   ar
    12    10    11   ar
    13    11     6   ar
    14    12    13   ar
    15    13    14   ar
    16    14    15   ar
    17    15    16   ar
    18    16    18   ar
    19    17    18    1
    20    17    21    1
    21    17    20    1
    22    17    19    1
    23    18    12   ar
    24    20    22    1
    25    23    26    1
    26    23    25    2
    27    23    24    2
    28    23    14    1
    29    26    32    1
    30    27    28   ar
    31    27     9    1
    32    28    29   ar
    33    29    30   ar
    34    30    31   ar
    35    31    32   ar
    36    32    27   ar
    37    34    35    1
    38    34    28    1
    39    35    36    1
    40    36    37    1
    41    37    38    1
    42    38     5   ar
    43     1    40    1
    44     3    41    1
    45     7    42    1
    46     8    43    1
    47    10    44    1
    48    11    45    1
    49    12    46    1
    50    13    47    1
    51    15    48    1
    52    16    49    1
    53    19    50    1
    54    19    51    1
    55    19    52    1
    56    20    53    1
    57    20    54    1
    58    21    55    1
    59    21    56    1
    60    21    57    1
    61    22    58    1
    62    26    59    1
    63    30    60    1
    64    33    61    1
    65    33    62    1
    66    33    63    1
    67    35    64    1
    68    35    65    1
    69    36    66    1
    70    36    67    1
@<TRIPOS>MOLECULE
16219006
 85 88 0 0 0
SMALL
GASTEIGER

@<TRIPOS>ATOM
      1 O           4.3828   -0.9897    2.2518 O.2     1  PRO11      -0.2738
      2 O           3.3632    1.1771   -1.4258 O.2     5  ASP55      -0.2735
      3 O           2.1160   -1.9828   -1.8457 O.2     2  VAL22      -0.2738
      4 O          -0.3675    2.8122    1.3936 O.2     4  TRP44      -0.2738
      5 O          -0.2541   -1.2429    1.7528 O.2     3  LEU33      -0.2738
      6 OD1         0.7427    5.4042   -2.1812 O.co2   5  ASP55      -0.5497
      7 OD2        -0.7543    3.6917   -2.4445 O.co2   5  ASP55      -0.5497
      8 N           3.4532    1.8381    0.7293 N.am    1  PRO11      -0.2884
      9 N           4.1695   -1.0895   -0.0243 N.am    2  VAL22      -0.3022
     10 N           0.5078    1.7580   -0.4521 N.am    5  ASP55      -0.3021
     11 N           1.2681   -2.8396    0.1025 N.am    3  LEU33      -0.3025
     12 N          -1.1808   -0.3433   -0.1428 N.am    4  TRP44      -0.3022
     13 NE1        -5.5221   -0.9449   -0.0070 N.ar    4  TRP44      -0.3604
     14 CA          4.6856    1.0907    0.9871 C.3     1  PRO11       0.1023
     15 CB          5.2428    1.7305    2.2598 C.3     1  PRO11      -0.0243
     16 CG          3.9937    2.2041    2.9944 C.3     1  PRO11      -0.0350
     17 CD          3.0789    2.6605    1.8684 C.3     1  PRO11       0.0156
     18 C           4.3959   -0.4208    1.1618 C.2     1  PRO11       0.2342
     19 C           2.8914    1.8872   -0.5293 C.2     5  ASP55       0.2369
     20 CA          3.6941   -2.4696   -0.0593 C.3     2  VAL22       0.1017
     21 CA          1.5898    2.7018   -0.7275 C.3     5  ASP55       0.1047
     22 CB          4.6303   -3.3833   -0.8797 C.3     2  VAL22      -0.0197
     23 CA         -0.1079   -2.5457   -0.2790 C.3     3  LEU33       0.0996
     24 C           2.2986   -2.4040   -0.7050 C.2     2  VAL22       0.2342
     25 CB          1.5251    3.1920   -2.1682 C.3     5  ASP55       0.0138
     26 CA         -1.5897    0.9103    0.5103 C.3     4  TRP44       0.1034
     27 CB         -1.0523   -3.7069    0.0496 C.3     3  LEU33      -0.0236
     28 CG         -0.7282   -5.0211   -0.6890 C.3     3  LEU33      -0.0446
     29 C          -0.4129    1.9095    0.5596 C.2     4  TRP44       0.2343
     30 CB         -2.7830    1.5517   -0.2121 C.3     4  TRP44       0.0013
     31 C          -0.5086   -1.3172    0.5510 C.2     3  LEU33       0.2340
     32 CG1         4.0735   -4.8104   -0.9740 C.3     2  VAL22      -0.0605
     33 CG2         6.0319   -3.4367   -0.2620 C.3     2  VAL22      -0.0605
     34 CG         -4.0191    0.6839   -0.2954 C.ar    4  TRP44      -0.0201
     35 CG          0.3921    4.1948   -2.2633 C.2     5  ASP55       0.0440
     36 CD1        -1.7053   -6.1141   -0.2490 C.3     3  LEU33      -0.0626
     37 CD2        -0.7760   -4.8670   -2.2097 C.3     3  LEU33      -0.0626
     38 CD2        -5.1493    0.9302   -1.1448 C.ar    4  TRP44       0.0029
     39 CD1        -4.3058   -0.4740    0.4057 C.ar    4  TRP44       0.0060
     40 CE2        -6.0645   -0.1043   -0.9477 C.ar    4  TRP44       0.0467
     41 CE3        -5.4735    1.9444   -2.0686 C.ar    4  TRP44      -0.0523
     42 CZ2        -7.2848   -0.1803   -1.6304 C.ar    4  TRP44      -0.0378
     43 CZ3        -6.6933    1.8906   -2.7531 C.ar    4  TRP44      -0.0611
     44 CH2        -7.5836    0.8412   -2.5369 C.ar    4  TRP44      -0.0598
     45 H           3.9522   -0.5014   -0.8380 H       2  VAL22       0.1495
     46 H           0.3417    1.0532   -1.1559 H       5  ASP55       0.1495
     47 H           1.4440   -2.8112    1.1044 H       3  LEU33       0.1495
     48 H          -1.2858   -0.4024   -1.1492 H       4  TRP44       0.1495
     49 HE1        -5.9664   -1.7847    0.3347 H       4  TRP44       0.1653
     50 HA          5.3893    1.2109    0.1548 H       1  PRO11       0.0597
     51 HB1         5.8567    2.6002    1.9947 H       1  PRO11       0.0288
     52 HB2         5.8557    1.0574    2.8659 H       1  PRO11       0.0288
     53 HG1         4.2011    3.0002    3.7150 H       1  PRO11       0.0281
     54 HG2         3.5365    1.3670    3.5347 H       1  PRO11       0.0281
     55 HD1         2.0269    2.5270    2.1199 H       1  PRO11       0.0465
     56 HD2         3.2624    3.7085    1.6073 H       1  PRO11       0.0465
     57 HA          3.6076   -2.8586    0.9618 H       2  VAL22       0.0597
     58 HA          1.5499    3.5438   -0.0304 H       5  ASP55       0.0598
     59 HB          4.7254   -2.9894   -1.9001 H       2  VAL22       0.0318
     60 HA         -0.1682   -2.2929   -1.3419 H       3  LEU33       0.0594
     61 HB1         1.3588    2.3727   -2.8777 H       5  ASP55       0.0348
     62 HB2         2.4667    3.6782   -2.4537 H       5  ASP55       0.0348
     63 HA         -1.8495    0.6788    1.5510 H       4  TRP44       0.0598
     64 HB1        -2.0827   -3.4029   -0.1798 H       3  LEU33       0.0290
     65 HB2        -1.0290   -3.8983    1.1314 H       3  LEU33       0.0290
     66 HG          0.2814   -5.3479   -0.4103 H       3  LEU33       0.0296
     67 HB1        -2.4846    1.8179   -1.2347 H       4  TRP44       0.0337
     68 HB2        -3.0542    2.4899    0.2886 H       4  TRP44       0.0337
     69 HG11        3.9164   -5.2413    0.0210 H       2  VAL22       0.0233
     70 HG12        4.7645   -5.4629   -1.5188 H       2  VAL22       0.0233
     71 HG13        3.1183   -4.8335   -1.5083 H       2  VAL22       0.0233
     72 HG21        5.9962   -3.8034    0.7699 H       2  VAL22       0.0233
     73 HG22        6.5027   -2.4487   -0.2563 H       2  VAL22       0.0233
     74 HG23        6.6833   -4.1061   -0.8346 H       2  VAL22       0.0233
     75 HD11       -2.7368   -5.8538   -0.5103 H       3  LEU33       0.0232
     76 HD12       -1.6573   -6.2662    0.8344 H       3  LEU33       0.0232
     77 HD13       -1.4644   -7.0681   -0.7298 H       3  LEU33       0.0232
     78 HD21       -1.7395   -4.4629   -2.5378 H       3  LEU33       0.0232
     79 HD22       -0.6289   -5.8338   -2.7032 H       3  LEU33       0.0232
     80 HD23        0.0145   -4.2006   -2.5680 H       3  LEU33       0.0232
     81 HD1        -3.7399   -1.0115    1.1554 H       4  TRP44       0.0810
     82 HE3        -4.7809    2.7652   -2.2469 H       4  TRP44       0.0624
     83 HZ2        -7.9786   -0.9969   -1.4640 H       4  TRP44       0.0638
     84 HZ3        -6.9405    2.6780   -3.4602 H       4  TRP44       0.0618
     85 HH2        -8.5243    0.8166   -3.0811 H       4  TRP44       0.0618
@<TRIPOS>BOND
     1     1    18    2
     2     2    19    2
     3     3    24    2
     4     4    29    2
     5     5    31    2
     6     6    35   ar
     7     7    35   ar
     8     8    14    1
     9     8    17    1
    10     8    19   am
    11     9    18   am
    12     9    20    1
    13    10    21    1
    14    10    29   am
    15    11    23    1
    16    11    24   am
    17    12    26    1
    18    12    31   am
    19    13    39   ar
    20    13    40   ar
    21    14    15    1
    22    14    18    1
    23    15    16    1
    24    16    17    1
    25    19    21    1
    26    20    22    1
    27    20    24    1
    28    21    25    1
    29    22    32    1
    30    22    33    1
    31    23    27    1
    32    23    31    1
    33    25    35    1
    34    26    29    1
    35    26    30    1
    36    27    28    1
    37    28    36    1
    38    28    37    1
    39    30    34    1
    40    34    38   ar
    41    34    39   ar
    42    38    40   ar
    43    38    41   ar
    44    40    42   ar
    45    41    43   ar
    46    42    44   ar
    47    43    44   ar
    48     9    45    1
    49    10    46    1
    50    11    47    1
    51    12    48    1
    52    13    49    1
    53    14    50    1
    54    15    51    1
    55    15    52    1
    56    16    53    1
    57    16    54    1
    58    17    55    1
    59    17    56    1
    60    20    57    1
    61    21    58    1
    62    22    59    1
    63    23    60    1
    64    25    61    1
    65    25    62    1
    66    26    63    1
    67    27    64    1
    68    27    65    1
    69    28    66    1
    70    30    67    1
    71    30    68    1
    72    32    69    1
    73    32    70    1
    74    32    71    1
    75    33    72    1
    76    33    73    1
    77    33    74    1
    78    36    75    1
    79    36    76    1
    80    36    77    1
    81    37    78    1
    82    37    79    1
    83    37    80    1
    84    39    81    1
    85    41    82    1
    86    42    83    1
    87    43    84    1
    88    44    85    1
