@<TRIPOS>MOLECULE
01479498K
 57 61 0 0 0
SMALL
GASTEIGER

@<TRIPOS>ATOM
      1 C          -4.2538   -1.5019   -0.4350 C.3     1  LIG11       0.1526
      2 C          -2.8914   -2.1271   -0.4446 C.2     1  LIG11       0.0278
      3 C          -4.9010   -1.3101   -1.8080 C.ar    1  LIG11       0.0009
      4 O          -4.3186   -0.2209    0.2433 O.3     1  LIG11      -0.4789
      5 C          -1.7515   -1.4358   -0.2621 C.2     1  LIG11       0.0016
      6 C          -2.9365   -3.6394   -0.6368 C.2     1  LIG11       0.0721
      7 C          -4.1536   -0.8984   -2.9279 C.ar    1  LIG11      -0.0091
      8 C          -6.3011   -1.4838   -1.9448 C.ar    1  LIG11      -0.0511
      9 C          -3.1970    0.5554    0.1412 C.ar    1  LIG11       0.1298
     10 C          -1.9287    0.0276   -0.1150 C.ar    1  LIG11       0.0283
     11 C          -0.4395   -2.1148   -0.2475 C.ar    1  LIG11      -0.0165
     12 O          -2.5661   -4.0495   -1.7713 O.co2   1  LIG11      -0.5448
     13 O          -3.4065   -4.2780    0.3472 O.co2   1  LIG11      -0.5448
     14 C          -4.8144   -0.6882   -4.1190 C.ar    1  LIG11       0.1666
     15 C          -6.9454   -1.2661   -3.1677 C.ar    1  LIG11      -0.0158
     16 C          -3.3732    1.9260    0.3333 C.ar    1  LIG11      -0.0158
     17 C          -0.8423    0.9106   -0.2234 C.ar    1  LIG11      -0.0087
     18 C           0.1522   -2.4741    0.9661 C.ar    1  LIG11      -0.0505
     19 C           0.2571   -2.3335   -1.4402 C.ar    1  LIG11      -0.0505
     20 C          -6.1723   -0.8679   -4.2358 C.ar    1  LIG11       0.1662
     21 O          -4.2421   -0.2819   -5.2847 O.3     1  LIG11      -0.4526
     22 C          -2.2859    2.7912    0.2161 C.ar    1  LIG11      -0.0164
     23 C          -1.0235    2.2890   -0.0946 C.ar    1  LIG11       0.1217
     24 C           1.4426   -3.0095    0.9844 C.ar    1  LIG11      -0.0194
     25 C           1.5511   -2.8638   -1.4194 C.ar    1  LIG11      -0.0194
     26 O          -6.6258   -0.6028   -5.4916 O.3     1  LIG11      -0.4526
     27 C          -5.3884   -0.2742   -6.1553 C.3     1  LIG11       0.2332
     28 O          -0.0236    3.2173   -0.2074 O.3     1  LIG11      -0.4893
     29 C           2.1576   -3.1832   -0.2035 C.ar    1  LIG11       0.1201
     30 C           0.9929    2.9361   -1.1810 C.3     1  LIG11       0.0946
     31 O           3.4258   -3.6764   -0.0468 O.3     1  LIG11      -0.4951
     32 C           2.2751    2.5239   -0.4654 C.3     1  LIG11      -0.0281
     33 C           1.2207    4.2226   -1.9713 C.3     1  LIG11      -0.0281
     34 C           4.2657   -3.6188   -1.1921 C.3     1  LIG11       0.0788
     35 H          -4.9127   -2.1489    0.1583 H       1  LIG11       0.0837
     36 H          -3.0802   -0.7561   -2.8693 H       1  LIG11       0.0659
     37 H          -6.8886   -1.7954   -1.0831 H       1  LIG11       0.0623
     38 H          -8.0144   -1.4068   -3.2702 H       1  LIG11       0.0655
     39 H          -4.3625    2.3150    0.5538 H       1  LIG11       0.0655
     40 H           0.1463    0.5053   -0.4082 H       1  LIG11       0.0661
     41 H          -0.3927   -2.3382    1.8968 H       1  LIG11       0.0625
     42 H          -0.2201   -2.1030   -2.3905 H       1  LIG11       0.0625
     43 H          -2.4280    3.8593    0.3480 H       1  LIG11       0.0655
     44 H           1.8924   -3.2869    1.9332 H       1  LIG11       0.0654
     45 H           2.0441   -3.0267   -2.3705 H       1  LIG11       0.0654
     46 H          -5.4846    0.7252   -6.5952 H       1  LIG11       0.1166
     47 H          -5.2209   -0.9957   -6.9637 H       1  LIG11       0.1166
     48 H           0.6873    2.1624   -1.8965 H       1  LIG11       0.0727
     49 H           2.6008    3.3018    0.2339 H       1  LIG11       0.0265
     50 H           2.1216    1.6175    0.1282 H       1  LIG11       0.0265
     51 H           3.0822    2.3350   -1.1799 H       1  LIG11       0.0265
     52 H           1.5133    5.0457   -1.3098 H       1  LIG11       0.0265
     53 H           1.9964    4.0900   -2.7319 H       1  LIG11       0.0265
     54 H           0.2949    4.5324   -2.4685 H       1  LIG11       0.0265
     55 H           5.2690   -3.9309   -0.8862 H       1  LIG11       0.0660
     56 H           3.9238   -4.3116   -1.9678 H       1  LIG11       0.0660
     57 H           4.3417   -2.5965   -1.5794 H       1  LIG11       0.0660
@<TRIPOS>BOND
     1     1     4    1
     2     1     2    1
     3     1     3    1
     4     2     5    2
     5     2     6    1
     6     3     8   ar
     7     3     7   ar
     8     4     9    1
     9     5    10    1
    10     5    11    1
    11     6    13   ar
    12     6    12   ar
    13     7    14   ar
    14     8    15   ar
    15     9    16   ar
    16     9    10   ar
    17    10    17   ar
    18    11    18   ar
    19    11    19   ar
    20    14    21    1
    21    14    20   ar
    22    15    20   ar
    23    16    22   ar
    24    17    23   ar
    25    18    24   ar
    26    19    25   ar
    27    20    26    1
    28    21    27    1
    29    22    23   ar
    30    23    28    1
    31    24    29   ar
    32    25    29   ar
    33    26    27    1
    34    28    30    1
    35    29    31    1
    36    30    33    1
    37    30    32    1
    38    31    34    1
    39     1    35    1
    40     7    36    1
    41     8    37    1
    42    15    38    1
    43    16    39    1
    44    17    40    1
    45    18    41    1
    46    19    42    1
    47    22    43    1
    48    24    44    1
    49    25    45    1
    50    27    46    1
    51    27    47    1
    52    30    48    1
    53    32    49    1
    54    32    50    1
    55    32    51    1
    56    33    52    1
    57    33    53    1
    58    33    54    1
    59    34    55    1
    60    34    56    1
    61    34    57    1
@<TRIPOS>MOLECULE
16219006
 85 88 0 0 0
SMALL
GASTEIGER

@<TRIPOS>ATOM
      1 O           4.1091   -0.9340    2.2259 O.2     1  PRO11      -0.2738
      2 O           3.3174    1.2434   -1.4275 O.2     5  ASP55      -0.2735
      3 O           2.0085   -1.7668   -1.7645 O.2     2  VAL22      -0.2738
      4 O          -0.3062    2.7359    1.4969 O.2     4  TRP44      -0.2738
      5 O          -0.2716   -1.2156    1.7426 O.2     3  LEU33      -0.2738
      6 OD1         0.6349    5.1657   -3.3117 O.co2   5  ASP55      -0.5497
      7 OD2        -0.6294    4.2654   -1.6462 O.co2   5  ASP55      -0.5497
      8 N           3.4713    1.8905    0.7298 N.am    1  PRO11      -0.2884
      9 N           4.2015   -1.1060   -0.0573 N.am    2  VAL22      -0.3022
     10 N           0.5097    1.8373   -0.4618 N.am    5  ASP55      -0.3021
     11 N           1.2122   -2.8733    0.0739 N.am    3  LEU33      -0.3025
     12 N          -1.1580   -0.3089   -0.1712 N.am    4  TRP44      -0.3022
     13 NE1        -5.6763   -0.5473    0.0577 N.ar    4  TRP44      -0.3604
     14 CA          4.6707    1.0849    0.9550 C.3     1  PRO11       0.1023
     15 CB          5.2817    1.6811    2.2237 C.3     1  PRO11      -0.0243
     16 CG          4.0766    2.2223    2.9845 C.3     1  PRO11      -0.0350
     17 CD          3.1568    2.7202    1.8800 C.3     1  PRO11       0.0156
     18 C           4.3080   -0.4094    1.1327 C.2     1  PRO11       0.2342
     19 C           2.8794    1.9588   -0.5141 C.2     5  ASP55       0.2369
     20 CA          3.6371   -2.4544   -0.0924 C.3     2  VAL22       0.1017
     21 CA          1.5852    2.7976   -0.6743 C.3     5  ASP55       0.1047
     22 CB          4.5348   -3.4497   -0.8629 C.3     2  VAL22      -0.0197
     23 CA         -0.1706   -2.5498   -0.2732 C.3     3  LEU33       0.0996
     24 C           2.2239   -2.3237   -0.6924 C.2     2  VAL22       0.2342
     25 CB          1.5399    3.3933   -2.0759 C.3     5  ASP55       0.0138
     26 CA         -1.5747    0.9474    0.4675 C.3     4  TRP44       0.1034
     27 CB         -1.1082   -3.7046    0.0930 C.3     3  LEU33      -0.0236
     28 CG         -2.5794   -3.4787   -0.3113 C.3     3  LEU33      -0.0446
     29 C          -0.3813    1.9120    0.5863 C.2     4  TRP44       0.2343
     30 CB         -2.7108    1.6219   -0.3201 C.3     4  TRP44       0.0013
     31 C          -0.5266   -1.2967    0.5418 C.2     3  LEU33       0.2340
     32 CG1         4.7906   -3.0742   -2.3246 C.3     2  VAL22      -0.0605
     33 CG2         3.9768   -4.8760   -0.7849 C.3     2  VAL22      -0.0605
     34 CG         -3.9211    0.7305   -0.4553 C.ar    4  TRP44      -0.0201
     35 CG          0.4068    4.3731   -2.3531 C.2     5  ASP55       0.0440
     36 CD1        -2.7486   -3.3175   -1.8231 C.3     3  LEU33      -0.0626
     37 CD2        -3.4387   -4.6435    0.1817 C.3     3  LEU33      -0.0626
     38 CD2        -4.4613    0.1781   -1.6633 C.ar    4  TRP44       0.0029
     39 CD1        -4.7114    0.2682    0.5802 C.ar    4  TRP44       0.0060
     40 CE2        -5.5471   -0.6248   -1.3089 C.ar    4  TRP44       0.0467
     41 CE3        -4.1238    0.2780   -3.0288 C.ar    4  TRP44      -0.0523
     42 CZ2        -6.3054   -1.3380   -2.2461 C.ar    4  TRP44      -0.0378
     43 CZ3        -4.8723   -0.4267   -3.9805 C.ar    4  TRP44      -0.0611
     44 CH2        -5.9453   -1.2245   -3.5921 C.ar    4  TRP44      -0.0598
     45 H           4.0162   -0.5209   -0.8808 H       2  VAL22       0.1495
     46 H           0.4026    1.1064   -1.1503 H       5  ASP55       0.1495
     47 H           1.3938   -2.9155    1.0698 H       3  LEU33       0.1495
     48 H          -1.2725   -0.3914   -1.1740 H       4  TRP44       0.1495
     49 HE1        -6.3841   -1.0269    0.5940 H       4  TRP44       0.1653
     50 HA          5.3633    1.1793    0.1103 H       1  PRO11       0.0597
     51 HB1         5.9440    2.5135    1.9556 H       1  PRO11       0.0288
     52 HB2         5.8614    0.9650    2.8142 H       1  PRO11       0.0288
     53 HG1         4.3435    3.0100    3.6945 H       1  PRO11       0.0281
     54 HG2         3.5900    1.4142    3.5427 H       1  PRO11       0.0281
     55 HD1         2.1058    2.6318    2.1557 H       1  PRO11       0.0465
     56 HD2         3.3773    3.7608    1.6184 H       1  PRO11       0.0465
     57 HA          3.5442   -2.8221    0.9355 H       2  VAL22       0.0597
     58 HA          1.5384    3.5971    0.0694 H       5  ASP55       0.0598
     59 HB          5.5123   -3.4574   -0.3624 H       2  VAL22       0.0318
     60 HA         -0.2281   -2.3352   -1.3443 H       3  LEU33       0.0594
     61 HB1         1.4720    2.6021   -2.8338 H       5  ASP55       0.0348
     62 HB2         2.4834    3.9247   -2.2600 H       5  ASP55       0.0348
     63 HA         -1.8996    0.7095    1.4882 H       4  TRP44       0.0598
     64 HB1        -1.0601   -3.8814    1.1762 H       3  LEU33       0.0290
     65 HB2        -0.7395   -4.6253   -0.3799 H       3  LEU33       0.0290
     66 HG         -2.9513   -2.5704    0.1765 H       3  LEU33       0.0296
     67 HB1        -2.3543    1.9092   -1.3169 H       4  TRP44       0.0337
     68 HB2        -3.0096    2.5528    0.1783 H       4  TRP44       0.0337
     69 HG11        3.8784   -3.1258   -2.9261 H       2  VAL22       0.0233
     70 HG12        5.5140   -3.7654   -2.7722 H       2  VAL22       0.0233
     71 HG13        5.2069   -2.0659   -2.4114 H       2  VAL22       0.0233
     72 HG21        3.0175   -4.9643   -1.3055 H       2  VAL22       0.0233
     73 HG22        3.8299   -5.1824    0.2558 H       2  VAL22       0.0233
     74 HG23        4.6706   -5.5884   -1.2453 H       2  VAL22       0.0233
     75 HD11       -2.2968   -4.1550   -2.3649 H       3  LEU33       0.0232
     76 HD12       -2.2879   -2.3928   -2.1821 H       3  LEU33       0.0232
     77 HD13       -3.8081   -3.2757   -2.0936 H       3  LEU33       0.0232
     78 HD21       -3.1385   -5.5860   -0.2879 H       3  LEU33       0.0232
     79 HD22       -4.4954   -4.4696   -0.0493 H       3  LEU33       0.0232
     80 HD23       -3.3510   -4.7597    1.2672 H       3  LEU33       0.0232
     81 HD1        -4.6535    0.4422    1.6465 H       4  TRP44       0.0810
     82 HE3        -3.2965    0.9078   -3.3481 H       4  TRP44       0.0624
     83 HZ2        -7.1438   -1.9565   -1.9452 H       4  TRP44       0.0638
     84 HZ3        -4.6122   -0.3410   -5.0328 H       4  TRP44       0.0618
     85 HH2        -6.5148   -1.7623   -4.3460 H       4  TRP44       0.0618
@<TRIPOS>BOND
     1     1    18    2
     2     2    19    2
     3     3    24    2
     4     4    29    2
     5     5    31    2
     6     6    35   ar
     7     7    35   ar
     8     8    14    1
     9     8    17    1
    10     8    19   am
    11     9    18   am
    12     9    20    1
    13    10    21    1
    14    10    29   am
    15    11    23    1
    16    11    24   am
    17    12    26    1
    18    12    31   am
    19    13    39   ar
    20    13    40   ar
    21    14    15    1
    22    14    18    1
    23    15    16    1
    24    16    17    1
    25    19    21    1
    26    20    22    1
    27    20    24    1
    28    21    25    1
    29    22    32    1
    30    22    33    1
    31    23    27    1
    32    23    31    1
    33    25    35    1
    34    26    29    1
    35    26    30    1
    36    27    28    1
    37    28    36    1
    38    28    37    1
    39    30    34    1
    40    34    38   ar
    41    34    39   ar
    42    38    40   ar
    43    38    41   ar
    44    40    42   ar
    45    41    43   ar
    46    42    44   ar
    47    43    44   ar
    48     9    45    1
    49    10    46    1
    50    11    47    1
    51    12    48    1
    52    13    49    1
    53    14    50    1
    54    15    51    1
    55    15    52    1
    56    16    53    1
    57    16    54    1
    58    17    55    1
    59    17    56    1
    60    20    57    1
    61    21    58    1
    62    22    59    1
    63    23    60    1
    64    25    61    1
    65    25    62    1
    66    26    63    1
    67    27    64    1
    68    27    65    1
    69    28    66    1
    70    30    67    1
    71    30    68    1
    72    32    69    1
    73    32    70    1
    74    32    71    1
    75    33    72    1
    76    33    73    1
    77    33    74    1
    78    36    75    1
    79    36    76    1
    80    36    77    1
    81    37    78    1
    82    37    79    1
    83    37    80    1
    84    39    81    1
    85    41    82    1
    86    42    83    1
    87    43    84    1
    88    44    85    1
