@<TRIPOS>MOLECULE
9939443
 70 74 0 0 0
SMALL
GASTEIGER

@<TRIPOS>ATOM
      1 S          -1.1752    3.4703    3.6710 S.O2    1  LIG11       0.0908
      2 O          -3.0231    0.7664    2.0272 O.3     1  LIG11      -0.4435
      3 O          -0.9740    4.8634    4.0243 O.2     1  LIG11      -0.1484
      4 O          -1.7546    2.5656    4.6451 O.2     1  LIG11      -0.1484
      5 O          -1.4417   -0.7105    0.2334 O.3     1  LIG11      -0.4715
      6 O          -5.1949    0.0402    3.8541 O.3     1  LIG11      -0.4914
      7 O           1.1427   -3.2739    0.0670 O.3     1  LIG11      -0.3917
      8 N          -2.1915    3.5341    2.3047 N.pl3   1  LIG11      -0.1950
      9 N           0.4168    1.4915    2.8573 N.ar    1  LIG11      -0.2351
     10 N          -1.0265    3.3425    0.3798 N.ar    1  LIG11      -0.2073
     11 N          -0.5707    1.2675   -0.6678 N.ar    1  LIG11      -0.1899
     12 N           1.9518    4.6553   -3.4857 N.ar    1  LIG11      -0.2552
     13 N           2.9824    3.2051   -5.7474 N.ar    1  LIG11      -0.5621
     14 N           2.3809    1.2394   -4.8061 N.ar    1  LIG11      -0.1535
     15 N           3.3363    2.1285   -6.4578 N.ar    1  LIG11      -0.3597
     16 N           3.0029    0.9428   -5.9374 N.ar    1  LIG11      -0.0878
     17 C           4.0895    0.9245    2.0672 C.3     1  LIG11      -0.0201
     18 C           2.8156    1.6550    2.4650 C.ar    1  LIG11      -0.0266
     19 C           5.3732    1.7590    2.1517 C.3     1  LIG11      -0.0586
     20 C           3.9763    0.3304    0.6551 C.3     1  LIG11      -0.0586
     21 C           0.4235    2.8103    3.1793 C.ar    1  LIG11       0.1969
     22 C           2.7666    3.0090    2.8268 C.ar    1  LIG11      -0.0535
     23 C           1.6089    0.9542    2.5180 C.ar    1  LIG11       0.0332
     24 C           1.5583    3.6043    3.1950 C.ar    1  LIG11      -0.0160
     25 C          -1.8336    2.6846    1.2305 C.ar    1  LIG11       0.1882
     26 C          -2.1430    1.3447    1.1598 C.ar    1  LIG11       0.2307
     27 C          -1.3734    0.6677    0.2389 C.ar    1  LIG11       0.2641
     28 C          -0.4473    2.5998   -0.5752 C.ar    1  LIG11       0.1659
     29 C           0.3905    3.2982   -1.5661 C.ar    1  LIG11       0.0227
     30 C          -4.2140    0.2288    1.5571 C.ar    1  LIG11       0.1702
     31 C           0.9969    2.6140   -2.6325 C.ar    1  LIG11      -0.0252
     32 C           0.6020    4.6837   -1.4960 C.ar    1  LIG11      -0.0328
     33 C          -0.2607   -1.3357   -0.2703 C.3     1  LIG11       0.1143
     34 C          -5.1998   -0.1384    2.4953 C.ar    1  LIG11       0.1621
     35 C           1.7576    3.3144   -3.5677 C.ar    1  LIG11       0.0708
     36 C          -4.4733   -0.0285    0.1970 C.ar    1  LIG11      -0.0157
     37 C           1.3759    5.3062   -2.4594 C.ar    1  LIG11       0.0289
     38 C          -0.0702   -2.6540    0.4715 C.3     1  LIG11       0.0783
     39 C          -6.3621   -0.8029    2.0675 C.ar    1  LIG11      -0.0163
     40 C          -5.6358   -0.6893   -0.2133 C.ar    1  LIG11      -0.0581
     41 C          -6.5787   -1.0859    0.7229 C.ar    1  LIG11      -0.0581
     42 C           2.3748    2.6158   -4.6982 C.ar    1  LIG11       0.0207
     43 C          -4.3854    1.0769    4.3808 C.3     1  LIG11       0.0790
     44 H           1.2035   -4.1161    0.5514 H       1  LIG11       0.2095
     45 H          -2.2093    4.5047    1.9938 H       1  LIG11       0.1754
     46 H           3.8275    2.2041   -7.3439 H       1  LIG11       0.1651
     47 H           4.2105    0.0929    2.7753 H       1  LIG11       0.0344
     48 H           5.3489    2.6072    1.4587 H       1  LIG11       0.0235
     49 H           5.5293    2.1460    3.1643 H       1  LIG11       0.0235
     50 H           6.2479    1.1493    1.8981 H       1  LIG11       0.0235
     51 H           3.7770    1.1092   -0.0896 H       1  LIG11       0.0235
     52 H           4.9032   -0.1811    0.3729 H       1  LIG11       0.0235
     53 H           3.1712   -0.4079    0.5895 H       1  LIG11       0.0235
     54 H           3.6655    3.6230    2.8418 H       1  LIG11       0.0622
     55 H           1.5670   -0.1079    2.2816 H       1  LIG11       0.0833
     56 H           1.5202    4.6445    3.4937 H       1  LIG11       0.0653
     57 H           0.8624    1.5395   -2.7387 H       1  LIG11       0.0646
     58 H           0.1649    5.2830   -0.7022 H       1  LIG11       0.0640
     59 H          -0.3761   -1.5184   -1.3458 H       1  LIG11       0.0720
     60 H           0.6434   -0.7318   -0.1259 H       1  LIG11       0.0720
     61 H          -3.7749    0.2410   -0.5866 H       1  LIG11       0.0655
     62 H           1.5534    6.3780   -2.4310 H       1  LIG11       0.0830
     63 H          -0.9078   -3.3307    0.2749 H       1  LIG11       0.0591
     64 H          -0.0319   -2.4763    1.5519 H       1  LIG11       0.0591
     65 H          -7.1074   -1.0993    2.8026 H       1  LIG11       0.0655
     66 H          -5.7934   -0.9064   -1.2664 H       1  LIG11       0.0619
     67 H          -7.4795   -1.6097    0.4138 H       1  LIG11       0.0619
     68 H          -4.7658    1.3295    5.3736 H       1  LIG11       0.0660
     69 H          -3.3646    0.7085    4.5016 H       1  LIG11       0.0660
     70 H          -4.4319    1.9875    3.7759 H       1  LIG11       0.0660
@<TRIPOS>BOND
     1     1    21    1
     2     1     8    1
     3     1     4    2
     4     1     3    2
     5     2    26    1
     6     2    30    1
     7     5    27    1
     8     5    33    1
     9     6    34    1
    10     6    43    1
    11     7    38    1
    12     8    25    1
    13     9    23   ar
    14     9    21   ar
    15    10    25   ar
    16    10    28   ar
    17    11    27   ar
    18    11    28   ar
    19    12    37   ar
    20    12    35   ar
    21    13    15   ar
    22    13    42   ar
    23    14    42   ar
    24    14    16   ar
    25    15    16   ar
    26    17    18    1
    27    17    20    1
    28    17    19    1
    29    18    23   ar
    30    18    22   ar
    31    21    24   ar
    32    22    24   ar
    33    25    26   ar
    34    26    27   ar
    35    28    29    1
    36    29    31   ar
    37    29    32   ar
    38    30    36   ar
    39    30    34   ar
    40    31    35   ar
    41    32    37   ar
    42    33    38    1
    43    34    39   ar
    44    35    42    1
    45    36    40   ar
    46    39    41   ar
    47    40    41   ar
    48     7    44    1
    49     8    45    1
    50    15    46    1
    51    17    47    1
    52    19    48    1
    53    19    49    1
    54    19    50    1
    55    20    51    1
    56    20    52    1
    57    20    53    1
    58    22    54    1
    59    23    55    1
    60    24    56    1
    61    31    57    1
    62    32    58    1
    63    33    59    1
    64    33    60    1
    65    36    61    1
    66    37    62    1
    67    38    63    1
    68    38    64    1
    69    39    65    1
    70    40    66    1
    71    41    67    1
    72    43    68    1
    73    43    69    1
    74    43    70    1
@<TRIPOS>MOLECULE
16219006
 85 88 0 0 0
SMALL
GASTEIGER

@<TRIPOS>ATOM
      1 O           4.2431   -0.9993    2.2271 O.2     1  PRO11      -0.2738
      2 O           3.0851    1.0077   -1.3271 O.2     5  ASP55      -0.2735
      3 O           2.0185   -2.0022   -1.8619 O.2     2  VAL22      -0.2738
      4 O          -0.4555    2.9185    1.2921 O.2     4  TRP44      -0.2738
      5 O          -0.3234   -1.1633    1.7377 O.2     3  LEU33      -0.2738
      6 OD1         3.6408    4.3603   -3.0931 O.co2   5  ASP55      -0.5497
      7 OD2         3.2063    5.0147   -0.9545 O.co2   5  ASP55      -0.5497
      8 N           3.4482    1.8291    0.7504 N.am    1  PRO11      -0.2884
      9 N           4.1633   -1.1307   -0.0593 N.am    2  VAL22      -0.3022
     10 N           0.4232    1.9814   -0.6147 N.am    5  ASP55      -0.3021
     11 N           1.2186   -2.8244    0.1121 N.am    3  LEU33      -0.3025
     12 N          -1.1405   -0.2777   -0.2153 N.am    4  TRP44      -0.3022
     13 NE1        -5.4962   -0.6803   -1.3421 N.ar    4  TRP44      -0.3604
     14 CA          4.6698    1.0484    0.9430 C.3     1  PRO11       0.1023
     15 CB          5.3222    1.6670    2.1832 C.3     1  PRO11      -0.0243
     16 CG          4.1495    2.2742    2.9437 C.3     1  PRO11      -0.0350
     17 CD          3.2511    2.7820    1.8289 C.3     1  PRO11       0.0156
     18 C           4.3477   -0.4530    1.1317 C.2     1  PRO11       0.2342
     19 C           2.8145    1.8621   -0.4710 C.2     5  ASP55       0.2369
     20 CA          3.6469   -2.4920   -0.1075 C.3     2  VAL22       0.1017
     21 CA          1.6253    2.8333   -0.6703 C.3     5  ASP55       0.1047
     22 CB          4.5965   -3.4463   -0.8658 C.3     2  VAL22      -0.0197
     23 CA         -0.1602   -2.5289   -0.2551 C.3     3  LEU33       0.0996
     24 C           2.2378   -2.4177   -0.7266 C.2     2  VAL22       0.2342
     25 CB          1.7242    3.5113   -2.0261 C.3     5  ASP55       0.0138
     26 CA         -1.5796    0.9748    0.4070 C.3     4  TRP44       0.1034
     27 CB         -1.1044   -3.6779    0.1109 C.3     3  LEU33      -0.0236
     28 CG         -0.7918   -5.0062   -0.6103 C.3     3  LEU33      -0.0446
     29 C          -0.4489    2.0187    0.4532 C.2     4  TRP44       0.2343
     30 CB         -2.7741    1.5936   -0.3355 C.3     4  TRP44       0.0013
     31 C          -0.5419   -1.2658    0.5309 C.2     3  LEU33       0.2340
     32 CG1         4.8783   -3.0464   -2.3171 C.3     2  VAL22      -0.0605
     33 CG2         4.0838   -4.8893   -0.8132 C.3     2  VAL22      -0.0605
     34 CG         -3.9449    0.6610   -0.4654 C.ar    4  TRP44      -0.0201
     35 CG          2.9787    4.3776   -2.0186 C.2     5  ASP55       0.0440
     36 CD1        -1.7743   -6.0868   -0.1540 C.3     3  LEU33      -0.0626
     37 CD2        -0.8390   -4.8763   -2.1337 C.3     3  LEU33      -0.0626
     38 CD2        -4.7576    0.1395    0.5942 C.ar    4  TRP44       0.0029
     39 CD1        -4.4392    0.1349   -1.6437 C.ar    4  TRP44       0.0060
     40 CE2        -5.7072   -0.7036    0.0166 C.ar    4  TRP44       0.0467
     41 CE3        -4.7680    0.2991    1.9954 C.ar    4  TRP44      -0.0523
     42 CZ2        -6.6606   -1.4012    0.7679 C.ar    4  TRP44      -0.0378
     43 CZ3        -5.7120   -0.3932    2.7629 C.ar    4  TRP44      -0.0611
     44 CH2        -6.6428   -1.2315    2.1562 C.ar    4  TRP44      -0.0598
     45 H           3.9399   -0.5305   -0.8637 H       2  VAL22       0.1495
     46 H           0.4939    1.1180   -1.1388 H       5  ASP55       0.1495
     47 H           1.4152   -2.7811    1.1098 H       3  LEU33       0.1495
     48 H          -1.2031   -0.3672   -1.2215 H       4  TRP44       0.1495
     49 HE1        -6.0461   -1.1933   -2.0151 H       4  TRP44       0.1653
     50 HA          5.3288    1.1561    0.0726 H       1  PRO11       0.0597
     51 HB1         6.0050    2.4692    1.8751 H       1  PRO11       0.0288
     52 HB2         5.8915    0.9565    2.7896 H       1  PRO11       0.0288
     53 HG1         4.4529    3.0676    3.6326 H       1  PRO11       0.0281
     54 HG2         3.6341    1.4973    3.5198 H       1  PRO11       0.0281
     55 HD1         2.2012    2.8221    2.1310 H       1  PRO11       0.0465
     56 HD2         3.5702    3.7696    1.4822 H       1  PRO11       0.0465
     57 HA          3.5548   -2.8667    0.9187 H       2  VAL22       0.0597
     58 HA          1.5666    3.5743    0.1289 H       5  ASP55       0.0598
     59 HB          5.5611   -3.4247   -0.3410 H       2  VAL22       0.0318
     60 HA         -0.2344   -2.3119   -1.3254 H       3  LEU33       0.0594
     61 HB1         0.8519    4.1509   -2.2079 H       5  ASP55       0.0348
     62 HB2         1.7698    2.7798   -2.8411 H       5  ASP55       0.0348
     63 HA         -1.8464    0.7557    1.4478 H       4  TRP44       0.0598
     64 HB1        -2.1363   -3.3745   -0.1112 H       3  LEU33       0.0290
     65 HB2        -1.0667   -3.8494    1.1956 H       3  LEU33       0.0290
     66 HG          0.2164   -5.3358   -0.3281 H       3  LEU33       0.0296
     67 HB1        -2.4609    1.9142   -1.3383 H       4  TRP44       0.0337
     68 HB2        -3.1028    2.5041    0.1828 H       4  TRP44       0.0337
     69 HG11        3.9914   -3.1472   -2.9502 H       2  VAL22       0.0233
     70 HG12        5.6535   -3.6925   -2.7431 H       2  VAL22       0.0233
     71 HG13        5.2378   -2.0156   -2.3869 H       2  VAL22       0.0233
     72 HG21        3.1415   -5.0039   -1.3607 H       2  VAL22       0.0233
     73 HG22        3.9161   -5.2064    0.2215 H       2  VAL22       0.0233
     74 HG23        4.8125   -5.5752   -1.2570 H       2  VAL22       0.0233
     75 HD11       -2.8044   -5.8260   -0.4209 H       3  LEU33       0.0232
     76 HD12       -1.7280   -6.2231    0.9311 H       3  LEU33       0.0232
     77 HD13       -1.5373   -7.0496   -0.6207 H       3  LEU33       0.0232
     78 HD21       -1.7972   -4.4629   -2.4675 H       3  LEU33       0.0232
     79 HD22       -0.7062   -5.8520   -2.6121 H       3  LEU33       0.0232
     80 HD23       -0.0391   -4.2274   -2.5044 H       3  LEU33       0.0232
     81 HD1        -4.1275    0.2743   -2.6702 H       4  TRP44       0.0810
     82 HE3        -4.0476    0.9488    2.4837 H       4  TRP44       0.0624
     83 HZ2        -7.3884   -2.0532    0.2983 H       4  TRP44       0.0638
     84 HZ3        -5.7116   -0.2733    3.8436 H       4  TRP44       0.0618
     85 HH2        -7.3665   -1.7619    2.7700 H       4  TRP44       0.0618
@<TRIPOS>BOND
     1     1    18    2
     2     2    19    2
     3     3    24    2
     4     4    29    2
     5     5    31    2
     6     6    35   ar
     7     7    35   ar
     8     8    14    1
     9     8    17    1
    10     8    19   am
    11     9    18   am
    12     9    20    1
    13    10    21    1
    14    10    29   am
    15    11    23    1
    16    11    24   am
    17    12    26    1
    18    12    31   am
    19    13    39   ar
    20    13    40   ar
    21    14    15    1
    22    14    18    1
    23    15    16    1
    24    16    17    1
    25    19    21    1
    26    20    22    1
    27    20    24    1
    28    21    25    1
    29    22    32    1
    30    22    33    1
    31    23    27    1
    32    23    31    1
    33    25    35    1
    34    26    29    1
    35    26    30    1
    36    27    28    1
    37    28    36    1
    38    28    37    1
    39    30    34    1
    40    34    38   ar
    41    34    39   ar
    42    38    40   ar
    43    38    41   ar
    44    40    42   ar
    45    41    43   ar
    46    42    44   ar
    47    43    44   ar
    48     9    45    1
    49    10    46    1
    50    11    47    1
    51    12    48    1
    52    13    49    1
    53    14    50    1
    54    15    51    1
    55    15    52    1
    56    16    53    1
    57    16    54    1
    58    17    55    1
    59    17    56    1
    60    20    57    1
    61    21    58    1
    62    22    59    1
    63    23    60    1
    64    25    61    1
    65    25    62    1
    66    26    63    1
    67    27    64    1
    68    27    65    1
    69    28    66    1
    70    30    67    1
    71    30    68    1
    72    32    69    1
    73    32    70    1
    74    32    71    1
    75    33    72    1
    76    33    73    1
    77    33    74    1
    78    36    75    1
    79    36    76    1
    80    36    77    1
    81    37    78    1
    82    37    79    1
    83    37    80    1
    84    39    81    1
    85    41    82    1
    86    42    83    1
    87    43    84    1
    88    44    85    1
