@<TRIPOS>MOLECULE
108002
 64 68 0 0 0
SMALL
GASTEIGER

@<TRIPOS>ATOM
      1 O           2.9775    5.1324   -1.7421 O.co2   1  LIG11      -0.5495
      2 O           2.2867    4.3194   -3.7476 O.co2   1  LIG11      -0.5495
      3 O          -0.6350   -1.7493    0.1554 O.3     1  LIG11      -0.4920
      4 O           3.7328    1.3796    0.7692 O.3     1  LIG11      -0.4858
      5 O          -4.0757    5.5350   -1.7485 O.3     1  LIG11      -0.4526
      6 O          -4.2180    6.4114   -3.9934 O.3     1  LIG11      -0.4526
      7 O           2.3927    4.1104    4.6303 O.3     1  LIG11      -0.4950
      8 O           6.5302   -0.5843    0.8668 O.co2   1  LIG11      -0.5463
      9 O           4.4578   -1.4936    0.5815 O.co2   1  LIG11      -0.5463
     10 C           1.1237    3.6695   -1.7665 C.3     1  LIG11       0.0203
     11 C           1.6777    2.5361   -0.8392 C.3     1  LIG11       0.0218
     12 C           0.1260    3.0195   -2.7507 C.3     1  LIG11       0.0184
     13 C           0.6065    1.4658   -0.9873 C.ar    1  LIG11      -0.0320
     14 C          -0.2701    1.7524   -2.0344 C.ar    1  LIG11      -0.0353
     15 C          -1.0471    3.9312   -3.0973 C.ar    1  LIG11      -0.0356
     16 C           1.9079    2.9132    0.6296 C.ar    1  LIG11       0.0026
     17 C           2.2505    4.4133   -2.4867 C.2     1  LIG11       0.0466
     18 C           0.4733    0.2784   -0.2718 C.ar    1  LIG11      -0.0159
     19 C          -1.2990    0.8802   -2.3701 C.ar    1  LIG11      -0.0542
     20 C          -0.5576   -0.6077   -0.6014 C.ar    1  LIG11       0.1208
     21 C           2.9586    2.3437    1.3845 C.ar    1  LIG11       0.1283
     22 C          -2.0281    4.2720   -2.1475 C.ar    1  LIG11      -0.0124
     23 C          -1.1344    4.4693   -4.4031 C.ar    1  LIG11      -0.0543
     24 C          -1.4540   -0.2947   -1.6338 C.ar    1  LIG11      -0.0196
     25 C           1.0281    3.7950    1.2897 C.ar    1  LIG11      -0.0510
     26 C          -3.0523    5.1080   -2.5379 C.ar    1  LIG11       0.1665
     27 C          -2.1892    5.3089   -4.7739 C.ar    1  LIG11      -0.0159
     28 C           3.1571    2.7495    2.7197 C.ar    1  LIG11       0.0221
     29 C           1.2246    4.1670    2.6206 C.ar    1  LIG11      -0.0194
     30 C          -3.1329    5.6086   -3.8169 C.ar    1  LIG11       0.1662
     31 C           2.2992    3.6603    3.3389 C.ar    1  LIG11       0.1236
     32 C          -1.0895   -2.9020   -0.5538 C.3     1  LIG11       0.0893
     33 C          -4.7758    6.3966   -2.6644 C.3     1  LIG11       0.2332
     34 C           4.6477    0.6538    1.6173 C.3     1  LIG11       0.1287
     35 C          -0.6866   -4.1409    0.2398 C.3     1  LIG11      -0.0215
     36 C           5.2604   -0.5712    0.9101 C.2     1  LIG11       0.0789
     37 C           3.5195    3.6645    5.3731 C.3     1  LIG11       0.0788
     38 C          -1.1763   -5.4159   -0.4245 C.3     1  LIG11      -0.0622
     39 H           0.6047    4.4454   -1.1943 H       1  LIG11       0.0379
     40 H           2.6092    2.1534   -1.2760 H       1  LIG11       0.0405
     41 H           0.6137    2.6857   -3.6755 H       1  LIG11       0.0404
     42 H           1.1847    0.0238    0.5103 H       1  LIG11       0.0657
     43 H          -1.9663    1.1077   -3.1947 H       1  LIG11       0.0622
     44 H          -1.9776    3.8947   -1.1313 H       1  LIG11       0.0658
     45 H          -0.3472    4.2428   -5.1233 H       1  LIG11       0.0622
     46 H          -2.2741   -0.9563   -1.8855 H       1  LIG11       0.0654
     47 H           0.1676    4.2074    0.7730 H       1  LIG11       0.0623
     48 H          -2.2455    5.7214   -5.7732 H       1  LIG11       0.0655
     49 H           3.9899    2.3432    3.2758 H       1  LIG11       0.0691
     50 H           0.5365    4.8641    3.0877 H       1  LIG11       0.0654
     51 H          -2.1819   -2.8664   -0.6410 H       1  LIG11       0.0696
     52 H          -0.6414   -2.9523   -1.5546 H       1  LIG11       0.0696
     53 H          -5.8182    6.0641   -2.7279 H       1  LIG11       0.1166
     54 H          -4.7606    7.4187   -2.2672 H       1  LIG11       0.1166
     55 H           5.4573    1.3250    1.9285 H       1  LIG11       0.0760
     56 H           4.1235    0.2618    2.4983 H       1  LIG11       0.0760
     57 H           0.4047   -4.1702    0.3433 H       1  LIG11       0.0295
     58 H          -1.0861   -4.0742    1.2586 H       1  LIG11       0.0295
     59 H           3.4760    4.1372    6.3593 H       1  LIG11       0.0660
     60 H           3.4881    2.5805    5.5252 H       1  LIG11       0.0660
     61 H           4.4572    3.9739    4.8996 H       1  LIG11       0.0660
     62 H          -0.7691   -5.5136   -1.4360 H       1  LIG11       0.0231
     63 H          -0.8633   -6.2907    0.1538 H       1  LIG11       0.0231
     64 H          -2.2690   -5.4271   -0.4924 H       1  LIG11       0.0231
@<TRIPOS>BOND
     1     1    17   ar
     2     2    17   ar
     3     3    20    1
     4     3    32    1
     5     4    21    1
     6     4    34    1
     7     5    26    1
     8     5    33    1
     9     6    30    1
    10     6    33    1
    11     7    31    1
    12     7    37    1
    13     8    36   ar
    14     9    36   ar
    15    10    11    1
    16    10    12    1
    17    10    17    1
    18    11    13    1
    19    11    16    1
    20    12    14    1
    21    12    15    1
    22    13    14   ar
    23    13    18   ar
    24    14    19   ar
    25    15    22   ar
    26    15    23   ar
    27    16    21   ar
    28    16    25   ar
    29    18    20   ar
    30    19    24   ar
    31    20    24   ar
    32    21    28   ar
    33    22    26   ar
    34    23    27   ar
    35    25    29   ar
    36    26    30   ar
    37    27    30   ar
    38    28    31   ar
    39    29    31   ar
    40    32    35    1
    41    34    36    1
    42    35    38    1
    43    10    39    1
    44    11    40    1
    45    12    41    1
    46    18    42    1
    47    19    43    1
    48    22    44    1
    49    23    45    1
    50    24    46    1
    51    25    47    1
    52    27    48    1
    53    28    49    1
    54    29    50    1
    55    32    51    1
    56    32    52    1
    57    33    53    1
    58    33    54    1
    59    34    55    1
    60    34    56    1
    61    35    57    1
    62    35    58    1
    63    37    59    1
    64    37    60    1
    65    37    61    1
    66    38    62    1
    67    38    63    1
    68    38    64    1
@<TRIPOS>MOLECULE
16219006
 85 88 0 0 0
SMALL
GASTEIGER

@<TRIPOS>ATOM
      1 O           4.2213   -0.9862    2.2555 O.2     1  PRO11      -0.2738
      2 O           3.2552    1.1050   -1.3622 O.2     5  ASP55      -0.2735
      3 O           1.9436   -1.8371   -1.7513 O.2     2  VAL22      -0.2738
      4 O          -0.5489    3.0042    1.1337 O.2     4  TRP44      -0.2738
      5 O          -0.6518   -1.2507    1.8135 O.2     3  LEU33      -0.2738
      6 OD1         3.0713    4.9368   -3.3284 O.co2   5  ASP55      -0.5497
      7 OD2         3.5757    4.6640   -1.1217 O.co2   5  ASP55      -0.5497
      8 N           3.4851    1.8359    0.7699 N.am    1  PRO11      -0.2884
      9 N           4.1827   -1.1025   -0.0323 N.am    2  VAL22      -0.3022
     10 N           0.5350    1.9409   -0.5870 N.am    5  ASP55      -0.3021
     11 N           1.2039   -2.7992    0.1820 N.am    3  LEU33      -0.3025
     12 N          -1.0968   -0.3073   -0.2373 N.am    4  TRP44      -0.3022
     13 NE1        -1.9534    1.6747   -4.1226 N.ar    4  TRP44      -0.3604
     14 CA          4.7034    1.0614    0.9939 C.3     1  PRO11       0.1023
     15 CB          5.3130    1.6700    2.2588 C.3     1  PRO11      -0.0243
     16 CG          4.1104    2.2501    2.9944 C.3     1  PRO11      -0.0350
     17 CD          3.2345    2.7597    1.8618 C.3     1  PRO11       0.0156
     18 C           4.3585   -0.4347    1.1647 C.2     1  PRO11       0.2342
     19 C           2.9170    1.9150   -0.4865 C.2     5  ASP55       0.2369
     20 CA          3.6259   -2.4466   -0.0843 C.3     2  VAL22       0.1017
     21 CA          1.6934    2.8446   -0.6799 C.3     5  ASP55       0.1047
     22 CB          4.5256   -3.4170   -0.8816 C.3     2  VAL22      -0.0197
     23 CA         -0.1891   -2.5738   -0.1731 C.3     3  LEU33       0.0996
     24 C           2.1974   -2.3255   -0.6518 C.2     2  VAL22       0.2342
     25 CB          1.7192    3.5067   -2.0476 C.3     5  ASP55       0.0138
     26 CA         -1.5672    0.9835    0.2789 C.3     4  TRP44       0.1034
     27 CB         -1.0691   -3.7725    0.1928 C.3     3  LEU33      -0.0236
     28 CG         -0.7283   -5.0675   -0.5750 C.3     3  LEU33      -0.0446
     29 C          -0.4568    2.0530    0.3579 C.2     4  TRP44       0.2343
     30 CB         -2.7751    1.4978   -0.5251 C.3     4  TRP44       0.0013
     31 C          -0.6645   -1.3212    0.5846 C.2     3  LEU33       0.2340
     32 CG1         4.7641   -3.0129   -2.3387 C.3     2  VAL22      -0.0605
     33 CG2         3.9864   -4.8501   -0.8195 C.3     2  VAL22      -0.0605
     34 CG         -2.4901    1.8344   -1.9628 C.ar    4  TRP44      -0.0201
     35 CG          2.9051    4.4562   -2.1712 C.2     5  ASP55       0.0440
     36 CD1        -1.6868   -6.1827   -0.1513 C.3     3  LEU33      -0.0626
     37 CD2        -0.7854   -4.8912   -2.0942 C.3     3  LEU33      -0.0626
     38 CD2        -2.4262    3.1523   -2.5257 C.ar    4  TRP44       0.0029
     39 CD1        -2.2491    0.9499   -2.9988 C.ar    4  TRP44       0.0060
     40 CE2        -2.0897    3.0178   -3.8721 C.ar    4  TRP44       0.0467
     41 CE3        -2.6062    4.4520   -2.0083 C.ar    4  TRP44      -0.0523
     42 CZ2        -1.9168    4.1135   -4.7256 C.ar    4  TRP44      -0.0378
     43 CZ3        -2.4510    5.5589   -2.8508 C.ar    4  TRP44      -0.0611
     44 CH2        -2.1080    5.3891   -4.1891 C.ar    4  TRP44      -0.0598
     45 H           3.9870   -0.4931   -0.8372 H       2  VAL22       0.1495
     46 H           0.5863    1.1213   -1.1741 H       5  ASP55       0.1495
     47 H           1.4119   -2.8076    1.1773 H       3  LEU33       0.1495
     48 H          -0.8319   -0.3404   -1.2152 H       4  TRP44       0.1495
     49 HE1        -1.6756    1.2896   -5.0144 H       4  TRP44       0.1653
     50 HA          5.3899    1.1687    0.1454 H       1  PRO11       0.0597
     51 HB1         5.9927    2.4854    1.9815 H       1  PRO11       0.0288
     52 HB2         5.8743    0.9574    2.8702 H       1  PRO11       0.0288
     53 HG1         4.3835    3.0376    3.7020 H       1  PRO11       0.0281
     54 HG2         3.5912    1.4579    3.5467 H       1  PRO11       0.0281
     55 HD1         2.1752    2.7695    2.1307 H       1  PRO11       0.0465
     56 HD2         3.5406    3.7626    1.5462 H       1  PRO11       0.0465
     57 HA          3.5560   -2.8343    0.9392 H       2  VAL22       0.0597
     58 HA          1.6237    3.6005    0.1052 H       5  ASP55       0.0598
     59 HB          5.5093   -3.4203   -0.3912 H       2  VAL22       0.0318
     60 HA         -0.2757   -2.3805   -1.2473 H       3  LEU33       0.0594
     61 HB1         0.7993    4.0824   -2.2047 H       5  ASP55       0.0348
     62 HB2         1.7763    2.7606   -2.8501 H       5  ASP55       0.0348
     63 HA         -1.8957    0.8162    1.3132 H       4  TRP44       0.0598
     64 HB1        -2.1193   -3.5078    0.0092 H       3  LEU33       0.0290
     65 HB2        -0.9900   -3.9700    1.2706 H       3  LEU33       0.0290
     66 HG          0.2883   -5.3816   -0.3072 H       3  LEU33       0.0296
     67 HB1        -3.1863    2.3813   -0.0213 H       4  TRP44       0.0337
     68 HB2        -3.5694    0.7394   -0.5044 H       4  TRP44       0.0337
     69 HG11        3.8505   -3.0793   -2.9368 H       2  VAL22       0.0233
     70 HG12        5.5026   -3.6788   -2.7997 H       2  VAL22       0.0233
     71 HG13        5.1540   -1.9932   -2.4134 H       2  VAL22       0.0233
     72 HG21        3.0259   -4.9434   -1.3371 H       2  VAL22       0.0233
     73 HG22        3.8471   -5.1706    0.2183 H       2  VAL22       0.0233
     74 HG23        4.6880   -5.5475   -1.2902 H       2  VAL22       0.0233
     75 HD11       -2.7223   -5.9344   -0.4088 H       3  LEU33       0.0232
     76 HD12       -1.6357   -6.3509    0.9293 H       3  LEU33       0.0232
     77 HD13       -1.4315   -7.1246   -0.6483 H       3  LEU33       0.0232
     78 HD21       -1.7447   -4.4673   -2.4095 H       3  LEU33       0.0232
     79 HD22       -0.6553   -5.8519   -2.6040 H       3  LEU33       0.0232
     80 HD23        0.0134   -4.2328   -2.4495 H       3  LEU33       0.0232
     81 HD1        -2.2279   -0.1305   -3.0317 H       4  TRP44       0.0810
     82 HE3        -2.8435    4.6029   -0.9595 H       4  TRP44       0.0624
     83 HZ2        -1.6202    3.9866   -5.7612 H       4  TRP44       0.0638
     84 HZ3        -2.5731    6.5605   -2.4474 H       4  TRP44       0.0618
     85 HH2        -1.9599    6.2617   -4.8206 H       4  TRP44       0.0618
@<TRIPOS>BOND
     1     1    18    2
     2     2    19    2
     3     3    24    2
     4     4    29    2
     5     5    31    2
     6     6    35   ar
     7     7    35   ar
     8     8    14    1
     9     8    17    1
    10     8    19   am
    11     9    18   am
    12     9    20    1
    13    10    21    1
    14    10    29   am
    15    11    23    1
    16    11    24   am
    17    12    26    1
    18    12    31   am
    19    13    39   ar
    20    13    40   ar
    21    14    15    1
    22    14    18    1
    23    15    16    1
    24    16    17    1
    25    19    21    1
    26    20    22    1
    27    20    24    1
    28    21    25    1
    29    22    32    1
    30    22    33    1
    31    23    27    1
    32    23    31    1
    33    25    35    1
    34    26    29    1
    35    26    30    1
    36    27    28    1
    37    28    36    1
    38    28    37    1
    39    30    34    1
    40    34    38   ar
    41    34    39   ar
    42    38    40   ar
    43    38    41   ar
    44    40    42   ar
    45    41    43   ar
    46    42    44   ar
    47    43    44   ar
    48     9    45    1
    49    10    46    1
    50    11    47    1
    51    12    48    1
    52    13    49    1
    53    14    50    1
    54    15    51    1
    55    15    52    1
    56    16    53    1
    57    16    54    1
    58    17    55    1
    59    17    56    1
    60    20    57    1
    61    21    58    1
    62    22    59    1
    63    23    60    1
    64    25    61    1
    65    25    62    1
    66    26    63    1
    67    27    64    1
    68    27    65    1
    69    28    66    1
    70    30    67    1
    71    30    68    1
    72    32    69    1
    73    32    70    1
    74    32    71    1
    75    33    72    1
    76    33    73    1
    77    33    74    1
    78    36    75    1
    79    36    76    1
    80    36    77    1
    81    37    78    1
    82    37    79    1
    83    37    80    1
    84    39    81    1
    85    41    82    1
    86    42    83    1
    87    43    84    1
    88    44    85    1
