@<TRIPOS>MOLECULE
6918493
 49 51 0 0 0
SMALL
GASTEIGER

@<TRIPOS>ATOM
      1 O          -2.1452    2.6157   -0.2490 O.3     1  LIG11      -0.3632
      2 O           1.0940    1.8591   -2.0609 O.3     1  LIG11      -0.4495
      3 O           1.4910    4.2353   -0.8133 O.co2   1  LIG11      -0.5459
      4 O           0.5034    3.4543    1.0815 O.co2   1  LIG11      -0.5459
      5 N           2.6753    1.1454   -0.4676 N.ar    1  LIG11      -0.2002
      6 N           2.7302    0.4026   -2.7255 N.ar    1  LIG11      -0.2002
      7 C          -1.2407    2.3409   -1.3640 C.3     1  LIG11       0.1609
      8 C           0.2509    2.1645   -0.9133 C.3     1  LIG11       0.1791
      9 C          -1.3653    3.5613   -2.3242 C.ar    1  LIG11      -0.0075
     10 C          -1.8798    1.0736   -2.0365 C.ar    1  LIG11      -0.0075
     11 C          -1.1787    3.4337   -3.7148 C.ar    1  LIG11      -0.0554
     12 C          -1.1971   -0.1385   -2.2301 C.ar    1  LIG11      -0.0554
     13 C          -1.6245    4.8488   -1.8182 C.ar    1  LIG11      -0.0554
     14 C          -3.2335    1.1225   -2.4426 C.ar    1  LIG11      -0.0554
     15 C           0.7906    3.4097   -0.1566 C.2     1  LIG11       0.0856
     16 C          -2.1394    1.6881    0.8261 C.3     1  LIG11       0.0382
     17 C          -1.2885    4.5382   -4.5640 C.ar    1  LIG11      -0.0614
     18 C          -1.8246   -1.2392   -2.8237 C.ar    1  LIG11      -0.0614
     19 C          -1.7171    5.9560   -2.6652 C.ar    1  LIG11      -0.0614
     20 C          -3.8620    0.0225   -3.0304 C.ar    1  LIG11      -0.0614
     21 C          -1.5588    5.7993   -4.0397 C.ar    1  LIG11      -0.0617
     22 C          -3.1551   -1.1592   -3.2244 C.ar    1  LIG11      -0.0617
     23 C           2.2298    1.1555   -1.7306 C.ar    1  LIG11       0.3191
     24 C           3.7466    0.3869   -0.1951 C.ar    1  LIG11       0.0453
     25 C           3.7840   -0.3754   -2.4167 C.ar    1  LIG11       0.0453
     26 C           4.3409   -0.4106   -1.1516 C.ar    1  LIG11      -0.0193
     27 C           4.2707    0.4314    1.2065 C.3     1  LIG11      -0.0221
     28 C           4.3383   -1.2381   -3.5084 C.3     1  LIG11      -0.0221
     29 H           0.2868    1.3161   -0.2169 H       1  LIG11       0.0834
     30 H          -0.9294    2.4664   -4.1456 H       1  LIG11       0.0621
     31 H          -0.1631   -0.2602   -1.9252 H       1  LIG11       0.0621
     32 H          -1.7108    4.9991   -0.7423 H       1  LIG11       0.0621
     33 H          -3.8015    2.0398   -2.2898 H       1  LIG11       0.0621
     34 H          -2.8621    2.0347    1.5692 H       1  LIG11       0.0524
     35 H          -2.4578    0.6927    0.5008 H       1  LIG11       0.0524
     36 H          -1.1702    1.6176    1.3215 H       1  LIG11       0.0524
     37 H          -1.1383    4.4121   -5.6317 H       1  LIG11       0.0618
     38 H          -1.2645   -2.1585   -2.9695 H       1  LIG11       0.0618
     39 H          -1.8816    6.9408   -2.2394 H       1  LIG11       0.0618
     40 H          -4.9024    0.0954   -3.3327 H       1  LIG11       0.0618
     41 H          -1.6150    6.6625   -4.6942 H       1  LIG11       0.0618
     42 H          -3.6380   -2.0162   -3.6826 H       1  LIG11       0.0618
     43 H           5.1936   -1.0332   -0.9198 H       1  LIG11       0.0653
     44 H           3.6847    1.1230    1.8209 H       1  LIG11       0.0293
     45 H           4.2142   -0.5613    1.6638 H       1  LIG11       0.0293
     46 H           5.3107    0.7718    1.2113 H       1  LIG11       0.0293
     47 H           3.7701   -1.1079   -4.4352 H       1  LIG11       0.0293
     48 H           5.3819   -0.9762   -3.7067 H       1  LIG11       0.0293
     49 H           4.2795   -2.2928   -3.2213 H       1  LIG11       0.0293
@<TRIPOS>BOND
     1     1     7    1
     2     1    16    1
     3     2     8    1
     4     2    23    1
     5     3    15   ar
     6     4    15   ar
     7     5    23   ar
     8     5    24   ar
     9     6    23   ar
    10     6    25   ar
    11     7     8    1
    12     7     9    1
    13     7    10    1
    14     8    15    1
    15     9    11   ar
    16     9    13   ar
    17    10    12   ar
    18    10    14   ar
    19    11    17   ar
    20    12    18   ar
    21    13    19   ar
    22    14    20   ar
    23    17    21   ar
    24    18    22   ar
    25    19    21   ar
    26    20    22   ar
    27    24    26   ar
    28    24    27    1
    29    25    26   ar
    30    25    28    1
    31     8    29    1
    32    11    30    1
    33    12    31    1
    34    13    32    1
    35    14    33    1
    36    16    34    1
    37    16    35    1
    38    16    36    1
    39    17    37    1
    40    18    38    1
    41    19    39    1
    42    20    40    1
    43    21    41    1
    44    22    42    1
    45    26    43    1
    46    27    44    1
    47    27    45    1
    48    27    46    1
    49    28    47    1
    50    28    48    1
    51    28    49    1
@<TRIPOS>MOLECULE
16219006
 85 88 0 0 0
SMALL
GASTEIGER

@<TRIPOS>ATOM
      1 O           4.2274   -1.1746    2.3406 O.2     1  PRO11      -0.2738
      2 O           3.2084    0.9175   -1.2431 O.2     5  ASP55      -0.2735
      3 O           2.1239   -2.3775   -1.8853 O.2     2  VAL22      -0.2738
      4 O          -0.4503    3.0332    1.1850 O.2     4  TRP44      -0.2738
      5 O          -0.4811   -1.0768    1.7455 O.2     3  LEU33      -0.2738
      6 OD1         3.8195    4.4774   -0.9621 O.co2   5  ASP55      -0.5497
      7 OD2         3.4722    4.7475   -3.1982 O.co2   5  ASP55      -0.5497
      8 N           3.4923    1.6883    0.8701 N.am    1  PRO11      -0.2884
      9 N           4.1556   -1.2585    0.0544 N.am    2  VAL22      -0.3022
     10 N           0.5598    1.9773   -0.5853 N.am    5  ASP55      -0.3021
     11 N           1.2461   -2.6823    0.2041 N.am    3  LEU33      -0.3025
     12 N          -1.1553   -0.2090   -0.2698 N.am    4  TRP44      -0.3022
     13 NE1        -2.2121    1.7494   -4.1114 N.ar    4  TRP44      -0.3604
     14 CA          4.6959    0.8907    1.0951 C.3     1  PRO11       0.1023
     15 CB          5.3211    1.4916    2.3570 C.3     1  PRO11      -0.0243
     16 CG          4.1352    2.1112    3.0865 C.3     1  PRO11      -0.0350
     17 CD          3.2791    2.6385    1.9475 C.3     1  PRO11       0.0156
     18 C           4.3430   -0.6064    1.2562 C.2     1  PRO11       0.2342
     19 C           2.9292    1.7707   -0.3871 C.2     5  ASP55       0.2369
     20 CA          3.6888   -2.6359   -0.0325 C.3     2  VAL22       0.1017
     21 CA          1.7879    2.7890   -0.6221 C.3     5  ASP55       0.1047
     22 CB          4.6454   -3.5076   -0.8748 C.3     2  VAL22      -0.0197
     23 CA         -0.1205   -2.4334   -0.2295 C.3     3  LEU33       0.0996
     24 C           2.2945   -2.5670   -0.6823 C.2     2  VAL22       0.2342
     25 CB          1.9396    3.4468   -1.9838 C.3     5  ASP55       0.0138
     26 CA         -1.5701    1.0819    0.2925 C.3     4  TRP44       0.1034
     27 CB         -1.0460   -3.6114    0.1014 C.3     3  LEU33      -0.0236
     28 CG         -0.6973   -4.9270   -0.6266 C.3     3  LEU33      -0.0446
     29 C          -0.4116    2.1028    0.3801 C.2     4  TRP44       0.2343
     30 CB         -2.7737    1.6676   -0.4650 C.3     4  TRP44       0.0013
     31 C          -0.5917   -1.1805    0.5253 C.2     3  LEU33       0.2340
     32 CG1         4.1169   -4.9432   -0.9971 C.3     2  VAL22      -0.0605
     33 CG2         6.0489   -3.5444   -0.2597 C.3     2  VAL22      -0.0605
     34 CG         -2.5163    1.9683   -1.9135 C.ar    4  TRP44      -0.0201
     35 CG          3.2002    4.3008   -2.0477 C.2     5  ASP55       0.0440
     36 CD1        -1.6416   -6.0400   -0.1634 C.3     3  LEU33      -0.0626
     37 CD2        -0.7713   -4.7956   -2.1489 C.3     3  LEU33      -0.0626
     38 CD2        -2.1330    3.2375   -2.4565 C.ar    4  TRP44       0.0029
     39 CD1        -2.5901    1.0849   -2.9748 C.ar    4  TRP44       0.0060
     40 CE2        -1.9352    3.0642   -3.8255 C.ar    4  TRP44       0.0467
     41 CE3        -1.9032    4.5128   -1.9001 C.ar    4  TRP44      -0.0523
     42 CZ2        -1.5045    4.0979   -4.6654 C.ar    4  TRP44      -0.0378
     43 CZ3        -1.4760    5.5583   -2.7257 C.ar    4  TRP44      -0.0611
     44 CH2        -1.2748    5.3493   -4.0872 C.ar    4  TRP44      -0.0598
     45 H           3.9737   -0.6472   -0.7518 H       2  VAL22       0.1495
     46 H           0.5618    1.1708   -1.1923 H       5  ASP55       0.1495
     47 H           1.4448   -2.5165    1.1890 H       3  LEU33       0.1495
     48 H          -1.0020   -0.2479   -1.2702 H       4  TRP44       0.1495
     49 HE1        -2.1323    1.3413   -5.0321 H       4  TRP44       0.1653
     50 HA          5.3839    0.9947    0.2465 H       1  PRO11       0.0597
     51 HB1         6.0231    2.2865    2.0742 H       1  PRO11       0.0288
     52 HB2         5.8634    0.7699    2.9745 H       1  PRO11       0.0288
     53 HG1         4.4299    2.8956    3.7890 H       1  PRO11       0.0281
     54 HG2         3.5923    1.3377    3.6420 H       1  PRO11       0.0281
     55 HD1         2.2208    2.6941    2.2147 H       1  PRO11       0.0465
     56 HD2         3.6248    3.6244    1.6201 H       1  PRO11       0.0465
     57 HA          3.5982   -3.0637    0.9730 H       2  VAL22       0.0597
     58 HA          1.7409    3.5458    0.1634 H       5  ASP55       0.0598
     59 HB          4.7317   -3.0892   -1.8862 H       2  VAL22       0.0318
     60 HA         -0.1500   -2.2256   -1.3032 H       3  LEU33       0.0594
     61 HB1         1.0830    4.0972   -2.1838 H       5  ASP55       0.0348
     62 HB2         1.9738    2.6996   -2.7864 H       5  ASP55       0.0348
     63 HA         -1.8815    0.8968    1.3289 H       4  TRP44       0.0598
     64 HB1        -2.0806   -3.3292   -0.1361 H       3  LEU33       0.0290
     65 HB2        -1.0243   -3.7940    1.1847 H       3  LEU33       0.0290
     66 HG          0.3236   -5.2254   -0.3575 H       3  LEU33       0.0296
     67 HB1        -3.1107    2.5821    0.0388 H       4  TRP44       0.0337
     68 HB2        -3.6113    0.9598   -0.4045 H       4  TRP44       0.0337
     69 HG11        3.9793   -5.3996   -0.0108 H       2  VAL22       0.0233
     70 HG12        4.8151   -5.5678   -1.5643 H       2  VAL22       0.0233
     71 HG13        3.1560   -4.9744   -1.5205 H       2  VAL22       0.0233
     72 HG21        6.0214   -3.9265    0.7667 H       2  VAL22       0.0233
     73 HG22        6.5017   -2.5481   -0.2404 H       2  VAL22       0.0233
     74 HG23        6.7113   -4.1929   -0.8434 H       2  VAL22       0.0233
     75 HD11       -2.6822   -5.8093   -0.4164 H       3  LEU33       0.0232
     76 HD12       -1.5781   -6.1796    0.9208 H       3  LEU33       0.0232
     77 HD13       -1.3819   -6.9929   -0.6371 H       3  LEU33       0.0232
     78 HD21       -1.7496   -4.4213   -2.4682 H       3  LEU33       0.0232
     79 HD22       -0.6069   -5.7655   -2.6311 H       3  LEU33       0.0232
     80 HD23       -0.0046   -4.1155   -2.5299 H       3  LEU33       0.0232
     81 HD1        -2.8554    0.0372   -3.0170 H       4  TRP44       0.0810
     82 HE3        -2.0125    4.6814   -0.8323 H       4  TRP44       0.0624
     83 HZ2        -1.3201    3.9353   -5.7217 H       4  TRP44       0.0638
     84 HZ3        -1.2591    6.5303   -2.2900 H       4  TRP44       0.0618
     85 HH2        -0.9012    6.1638   -4.7033 H       4  TRP44       0.0618
@<TRIPOS>BOND
     1     1    18    2
     2     2    19    2
     3     3    24    2
     4     4    29    2
     5     5    31    2
     6     6    35   ar
     7     7    35   ar
     8     8    14    1
     9     8    17    1
    10     8    19   am
    11     9    18   am
    12     9    20    1
    13    10    21    1
    14    10    29   am
    15    11    23    1
    16    11    24   am
    17    12    26    1
    18    12    31   am
    19    13    39   ar
    20    13    40   ar
    21    14    15    1
    22    14    18    1
    23    15    16    1
    24    16    17    1
    25    19    21    1
    26    20    22    1
    27    20    24    1
    28    21    25    1
    29    22    32    1
    30    22    33    1
    31    23    27    1
    32    23    31    1
    33    25    35    1
    34    26    29    1
    35    26    30    1
    36    27    28    1
    37    28    36    1
    38    28    37    1
    39    30    34    1
    40    34    38   ar
    41    34    39   ar
    42    38    40   ar
    43    38    41   ar
    44    40    42   ar
    45    41    43   ar
    46    42    44   ar
    47    43    44   ar
    48     9    45    1
    49    10    46    1
    50    11    47    1
    51    12    48    1
    52    13    49    1
    53    14    50    1
    54    15    51    1
    55    15    52    1
    56    16    53    1
    57    16    54    1
    58    17    55    1
    59    17    56    1
    60    20    57    1
    61    21    58    1
    62    22    59    1
    63    23    60    1
    64    25    61    1
    65    25    62    1
    66    26    63    1
    67    27    64    1
    68    27    65    1
    69    28    66    1
    70    30    67    1
    71    30    68    1
    72    32    69    1
    73    32    70    1
    74    32    71    1
    75    33    72    1
    76    33    73    1
    77    33    74    1
    78    36    75    1
    79    36    76    1
    80    36    77    1
    81    37    78    1
    82    37    79    1
    83    37    80    1
    84    39    81    1
    85    41    82    1
    86    42    83    1
    87    43    84    1
    88    44    85    1
