@<TRIPOS>MOLECULE
6433095
 64 68 0 0 0
SMALL
GASTEIGER

@<TRIPOS>ATOM
      1 S          -1.3047    0.1396   -0.8369 S.O2    1  LIG11       0.0908
      2 O           0.2918    3.5626   -0.3466 O.3     1  LIG11      -0.4435
      3 O          -1.1826    5.7839   -0.6613 O.3     1  LIG11      -0.4715
      4 O          -1.2219    0.9753   -2.0183 O.2     1  LIG11      -0.1484
      5 O          -2.4249   -0.7478   -0.6108 O.2     1  LIG11      -0.1484
      6 O           2.7989    2.5509   -1.2585 O.3     1  LIG11      -0.4914
      7 O          -3.6279    8.1645   -2.0657 O.3     1  LIG11      -0.3917
      8 N          -1.1145    1.1301    0.5343 N.pl3   1  LIG11      -0.1950
      9 N          -3.0495    2.3966    0.6911 N.ar    1  LIG11      -0.2073
     10 N          -3.1075    4.7068    0.1364 N.ar    1  LIG11      -0.1899
     11 N           1.1627   -0.5515   -1.6092 N.ar    1  LIG11      -0.2351
     12 N          -7.8489    3.8969    1.5597 N.ar    1  LIG11      -0.2552
     13 N          -9.5455    1.5990    1.4421 N.ar    1  LIG11      -0.5621
     14 N          -7.7603    0.2272    1.2347 N.ar    1  LIG11      -0.1535
     15 N          -9.8570    0.3001    1.4053 N.ar    1  LIG11      -0.3597
     16 N          -8.8327   -0.5500    1.2879 N.ar    1  LIG11      -0.0878
     17 C          -1.7344    2.4046    0.4056 C.ar    1  LIG11       0.1882
     18 C          -1.0310    3.5218   -0.0103 C.ar    1  LIG11       0.2307
     19 C          -1.8006    4.6519   -0.1653 C.ar    1  LIG11       0.2641
     20 C          -3.6881    3.5697    0.5587 C.ar    1  LIG11       0.1659
     21 C           0.1940   -0.8503   -0.7102 C.ar    1  LIG11       0.1969
     22 C          -5.1151    3.6574    0.9151 C.ar    1  LIG11       0.0227
     23 C           0.3292   -1.7604    0.3282 C.ar    1  LIG11      -0.0160
     24 C           1.2443    3.1598    0.5633 C.ar    1  LIG11       0.1702
     25 C          -5.9452    2.5271    0.9842 C.ar    1  LIG11      -0.0252
     26 C           2.5779   -2.1493   -0.4622 C.ar    1  LIG11      -0.0322
     27 C           1.5496   -2.4200    0.4471 C.ar    1  LIG11      -0.0541
     28 C          -5.7039    4.9037    1.1875 C.ar    1  LIG11      -0.0328
     29 C          -2.0147    6.9439   -0.7427 C.3     1  LIG11       0.1143
     30 C          -7.2970    2.6828    1.2948 C.ar    1  LIG11       0.0708
     31 C           2.3264   -1.2212   -1.4710 C.ar    1  LIG11       0.0327
     32 C           2.4464    2.6371    0.0622 C.ar    1  LIG11       0.1621
     33 C           1.0478    3.2252    1.9510 C.ar    1  LIG11      -0.0157
     34 C          -7.0466    4.9727    1.5038 C.ar    1  LIG11       0.0289
     35 C           3.8913   -2.8645   -0.3952 C.3     1  LIG11      -0.0383
     36 C          -2.8986    6.9437   -1.9891 C.3     1  LIG11       0.0783
     37 C           3.3761    2.0764    0.9427 C.ar    1  LIG11      -0.0163
     38 C           1.9940    2.6821    2.8225 C.ar    1  LIG11      -0.0581
     39 C           3.1500    2.0929    2.3179 C.ar    1  LIG11      -0.0581
     40 C          -8.2025    1.5308    1.3302 C.ar    1  LIG11       0.0207
     41 C           2.4797    3.6933   -2.0500 C.3     1  LIG11       0.0790
     42 H          -4.1966    8.1025   -2.8531 H       1  LIG11       0.2095
     43 H          -0.1250    1.1842    0.7670 H       1  LIG11       0.1754
     44 H         -10.8185   -0.0251    1.4588 H       1  LIG11       0.1651
     45 H          -0.4787   -1.9407    1.0290 H       1  LIG11       0.0653
     46 H          -5.5409    1.5387    0.7736 H       1  LIG11       0.0646
     47 H           1.6958   -3.1402    1.2493 H       1  LIG11       0.0622
     48 H          -5.1216    5.8208    1.1549 H       1  LIG11       0.0640
     49 H          -1.3413    7.8079   -0.7988 H       1  LIG11       0.0720
     50 H          -2.5960    7.1039    0.1750 H       1  LIG11       0.0720
     51 H           3.0808   -0.9814   -2.2175 H       1  LIG11       0.0833
     52 H           0.1556    3.6776    2.3763 H       1  LIG11       0.0655
     53 H          -7.5249    5.9232    1.7223 H       1  LIG11       0.0830
     54 H           4.0349   -3.3419    0.5798 H       1  LIG11       0.0278
     55 H           4.7193   -2.1625   -0.5405 H       1  LIG11       0.0278
     56 H           3.9380   -3.6378   -1.1683 H       1  LIG11       0.0278
     57 H          -2.2856    6.8387   -2.8904 H       1  LIG11       0.0591
     58 H          -3.6121    6.1147   -1.9788 H       1  LIG11       0.0591
     59 H           4.2887    1.6345    0.5495 H       1  LIG11       0.0655
     60 H           1.8259    2.7135    3.8967 H       1  LIG11       0.0619
     61 H           3.8841    1.6605    2.9933 H       1  LIG11       0.0619
     62 H           3.2197    3.7579   -2.8539 H       1  LIG11       0.0660
     63 H           2.5312    4.6287   -1.4807 H       1  LIG11       0.0660
     64 H           1.4976    3.5702   -2.5154 H       1  LIG11       0.0660
@<TRIPOS>BOND
     1     1     4    2
     2     1     5    2
     3     1     8    1
     4     1    21    1
     5     2    18    1
     6     2    24    1
     7     3    19    1
     8     3    29    1
     9     6    32    1
    10     6    41    1
    11     7    36    1
    12     8    17    1
    13     9    17   ar
    14     9    20   ar
    15    10    19   ar
    16    10    20   ar
    17    11    21   ar
    18    11    31   ar
    19    12    30   ar
    20    12    34   ar
    21    13    15   ar
    22    13    40   ar
    23    14    16   ar
    24    14    40   ar
    25    15    16   ar
    26    17    18   ar
    27    18    19   ar
    28    20    22    1
    29    21    23   ar
    30    22    25   ar
    31    22    28   ar
    32    23    27   ar
    33    24    32   ar
    34    24    33   ar
    35    25    30   ar
    36    26    27   ar
    37    26    31   ar
    38    26    35    1
    39    28    34   ar
    40    29    36    1
    41    30    40    1
    42    32    37   ar
    43    33    38   ar
    44    37    39   ar
    45    38    39   ar
    46     7    42    1
    47     8    43    1
    48    15    44    1
    49    23    45    1
    50    25    46    1
    51    27    47    1
    52    28    48    1
    53    29    49    1
    54    29    50    1
    55    31    51    1
    56    33    52    1
    57    34    53    1
    58    35    54    1
    59    35    55    1
    60    35    56    1
    61    36    57    1
    62    36    58    1
    63    37    59    1
    64    38    60    1
    65    39    61    1
    66    41    62    1
    67    41    63    1
    68    41    64    1
@<TRIPOS>MOLECULE
16219006
 85 88 0 0 0
SMALL
GASTEIGER

@<TRIPOS>ATOM
      1 O           4.1281   -1.0392    2.2738 O.2     1  PRO11      -0.2738
      2 O           3.0458    0.9708   -1.2940 O.2     5  ASP55      -0.2735
      3 O           2.0399   -2.2690   -1.8664 O.2     2  VAL22      -0.2738
      4 O          -0.2290    2.6508    1.5254 O.2     4  TRP44      -0.2738
      5 O          -0.6024   -1.1587    1.7947 O.2     3  LEU33      -0.2738
      6 OD1         3.4879    4.7194   -0.9658 O.co2   5  ASP55      -0.5497
      7 OD2         3.2519    4.7696   -3.2325 O.co2   5  ASP55      -0.5497
      8 N           3.4436    1.7823    0.7832 N.am    1  PRO11      -0.2884
      9 N           4.1175   -1.2097   -0.0093 N.am    2  VAL22      -0.3022
     10 N           0.4110    2.0079   -0.5827 N.am    5  ASP55      -0.3021
     11 N           1.1828   -2.6886    0.2118 N.am    3  LEU33      -0.3025
     12 N          -1.2515   -0.2475   -0.2131 N.am    4  TRP44      -0.3022
     13 NE1        -3.5126    5.1038    0.6766 N.ar    4  TRP44      -0.3604
     14 CA          4.6459    0.9735    0.9665 C.3     1  PRO11       0.1023
     15 CB          5.3336    1.5822    2.1918 C.3     1  PRO11      -0.0243
     16 CG          4.1907    2.2297    2.9635 C.3     1  PRO11      -0.0350
     17 CD          3.2909    2.7507    1.8568 C.3     1  PRO11       0.0156
     18 C           4.2822   -0.5144    1.1727 C.2     1  PRO11       0.2342
     19 C           2.8022    1.8298   -0.4365 C.2     5  ASP55       0.2369
     20 CA          3.6257   -2.5820   -0.0429 C.3     2  VAL22       0.1017
     21 CA          1.6339    2.8281   -0.6252 C.3     5  ASP55       0.1047
     22 CB          4.5532   -3.4979   -0.8723 C.3     2  VAL22      -0.0197
     23 CA         -0.1938   -2.4647   -0.2061 C.3     3  LEU33       0.0996
     24 C           2.2224   -2.5075   -0.6740 C.2     2  VAL22       0.2342
     25 CB          1.7226    3.5076   -1.9818 C.3     5  ASP55       0.0138
     26 CA         -1.6456    1.0447    0.3768 C.3     4  TRP44       0.1034
     27 CB         -1.0875   -3.6702    0.1071 C.3     3  LEU33      -0.0236
     28 CG         -0.7114   -4.9648   -0.6447 C.3     3  LEU33      -0.0446
     29 C          -0.3944    1.9392    0.5366 C.2     4  TRP44       0.2343
     30 CB         -2.6915    1.7219   -0.5263 C.3     4  TRP44       0.0013
     31 C          -0.6963   -1.2372    0.5720 C.2     3  LEU33       0.2340
     32 CG1         3.9889   -4.9224   -0.9607 C.3     2  VAL22      -0.0605
     33 CG2         5.9601   -3.5587   -0.2658 C.3     2  VAL22      -0.0605
     34 CG         -3.2890    2.9798    0.0277 C.ar    4  TRP44      -0.0201
     35 CG          2.9435    4.4132   -2.0611 C.2     5  ASP55       0.0440
     36 CD1        -1.6530   -6.0960   -0.2222 C.3     3  LEU33      -0.0626
     37 CD2        -0.7591   -4.8018   -2.1650 C.3     3  LEU33      -0.0626
     38 CD2        -4.6145    3.1708    0.5398 C.ar    4  TRP44       0.0029
     39 CD1        -2.6581    4.2068    0.1014 C.ar    4  TRP44       0.0060
     40 CE2        -4.7245    4.5073    0.9302 C.ar    4  TRP44       0.0467
     41 CE3        -5.7391    2.3347    0.7029 C.ar    4  TRP44      -0.0523
     42 CZ2        -5.8960    5.0485    1.4730 C.ar    4  TRP44      -0.0378
     43 CZ3        -6.9220    2.8619    1.2367 C.ar    4  TRP44      -0.0611
     44 CH2        -6.9966    4.1999    1.6153 C.ar    4  TRP44      -0.0598
     45 H           3.9214   -0.6247   -0.8306 H       2  VAL22       0.1495
     46 H           0.4015    1.2390   -1.2371 H       5  ASP55       0.1495
     47 H           1.3817   -2.5532    1.2016 H       3  LEU33       0.1495
     48 H          -1.0821   -0.2814   -1.2103 H       4  TRP44       0.1495
     49 HE1        -3.2873    6.0680    0.8765 H       4  TRP44       0.1653
     50 HA          5.2957    1.0568    0.0867 H       1  PRO11       0.0597
     51 HB1         6.0350    2.3615    1.8683 H       1  PRO11       0.0288
     52 HB2         5.8897    0.8594    2.7958 H       1  PRO11       0.0288
     53 HG1         4.5264    3.0208    3.6395 H       1  PRO11       0.0281
     54 HG2         3.6617    1.4735    3.5553 H       1  PRO11       0.0281
     55 HD1         2.2508    2.8275    2.1764 H       1  PRO11       0.0465
     56 HD2         3.6344    3.7268    1.4982 H       1  PRO11       0.0465
     57 HA          3.5457   -2.9761    0.9769 H       2  VAL22       0.0597
     58 HA          1.5895    3.5705    0.1736 H       5  ASP55       0.0598
     59 HB          4.6431   -3.1041   -1.8932 H       2  VAL22       0.0318
     60 HA         -0.2349   -2.2404   -1.2755 H       3  LEU33       0.0594
     61 HB1         0.8297    4.1224   -2.1554 H       5  ASP55       0.0348
     62 HB2         1.7684    2.7703   -2.7935 H       5  ASP55       0.0348
     63 HA         -2.0543    0.8571    1.3770 H       4  TRP44       0.0598
     64 HB1        -2.1291   -3.4082   -0.1230 H       3  LEU33       0.0290
     65 HB2        -1.0585   -3.8719    1.1868 H       3  LEU33       0.0290
     66 HG          0.3077   -5.2581   -0.3636 H       3  LEU33       0.0296
     67 HB1        -3.4970    1.0040   -0.7298 H       4  TRP44       0.0337
     68 HB2        -2.2521    1.9503   -1.5069 H       4  TRP44       0.0337
     69 HG11        3.8437   -5.3534    0.0360 H       2  VAL22       0.0233
     70 HG12        4.6695   -5.5771   -1.5156 H       2  VAL22       0.0233
     71 HG13        3.0260   -4.9412   -1.4810 H       2  VAL22       0.0233
     72 HG21        5.9310   -3.9258    0.7661 H       2  VAL22       0.0233
     73 HG22        6.4367   -2.5735   -0.2636 H       2  VAL22       0.0233
     74 HG23        6.6029   -4.2316   -0.8440 H       2  VAL22       0.0233
     75 HD11       -2.6910   -5.8686   -0.4888 H       3  LEU33       0.0232
     76 HD12       -1.6075   -6.2576    0.8598 H       3  LEU33       0.0232
     77 HD13       -1.3767   -7.0361   -0.7114 H       3  LEU33       0.0232
     78 HD21       -1.7319   -4.4215   -2.4937 H       3  LEU33       0.0232
     79 HD22       -0.5845   -5.7609   -2.6648 H       3  LEU33       0.0232
     80 HD23        0.0138   -4.1133   -2.5180 H       3  LEU33       0.0232
     81 HD1        -1.6564    4.5110   -0.1788 H       4  TRP44       0.0810
     82 HE3        -5.6947    1.2899    0.4128 H       4  TRP44       0.0624
     83 HZ2        -5.9520    6.0904    1.7700 H       4  TRP44       0.0638
     84 HZ3        -7.7893    2.2181    1.3560 H       4  TRP44       0.0618
     85 HH2        -7.9224    4.5922    2.0286 H       4  TRP44       0.0618
@<TRIPOS>BOND
     1     1    18    2
     2     2    19    2
     3     3    24    2
     4     4    29    2
     5     5    31    2
     6     6    35   ar
     7     7    35   ar
     8     8    14    1
     9     8    17    1
    10     8    19   am
    11     9    18   am
    12     9    20    1
    13    10    21    1
    14    10    29   am
    15    11    23    1
    16    11    24   am
    17    12    26    1
    18    12    31   am
    19    13    39   ar
    20    13    40   ar
    21    14    15    1
    22    14    18    1
    23    15    16    1
    24    16    17    1
    25    19    21    1
    26    20    22    1
    27    20    24    1
    28    21    25    1
    29    22    32    1
    30    22    33    1
    31    23    27    1
    32    23    31    1
    33    25    35    1
    34    26    29    1
    35    26    30    1
    36    27    28    1
    37    28    36    1
    38    28    37    1
    39    30    34    1
    40    34    38   ar
    41    34    39   ar
    42    38    40   ar
    43    38    41   ar
    44    40    42   ar
    45    41    43   ar
    46    42    44   ar
    47    43    44   ar
    48     9    45    1
    49    10    46    1
    50    11    47    1
    51    12    48    1
    52    13    49    1
    53    14    50    1
    54    15    51    1
    55    15    52    1
    56    16    53    1
    57    16    54    1
    58    17    55    1
    59    17    56    1
    60    20    57    1
    61    21    58    1
    62    22    59    1
    63    23    60    1
    64    25    61    1
    65    25    62    1
    66    26    63    1
    67    27    64    1
    68    27    65    1
    69    28    66    1
    70    30    67    1
    71    30    68    1
    72    32    69    1
    73    32    70    1
    74    32    71    1
    75    33    72    1
    76    33    73    1
    77    33    74    1
    78    36    75    1
    79    36    76    1
    80    36    77    1
    81    37    78    1
    82    37    79    1
    83    37    80    1
    84    39    81    1
    85    41    82    1
    86    42    83    1
    87    43    84    1
    88    44    85    1
