@<TRIPOS>MOLECULE
02228316B
 82 86 0 0 0
SMALL
GASTEIGER

@<TRIPOS>ATOM
      1 C           2.2165   -3.0282   -0.8600 C.3     1  LIG11       0.2491
      2 C           1.3665   -2.3179   -1.8947 C.2     1  LIG11       0.3556
      3 N           1.2234   -3.6541    0.0462 N.2     1  LIG11      -0.0687
      4 C           3.1106   -4.1133   -1.4788 C.3     1  LIG11       0.0059
      5 C           3.1323   -2.1022   -0.0625 C.3     1  LIG11       0.0059
      6 N           0.0662   -2.5749   -1.5552 N.am    1  LIG11      -0.1529
      7 O           1.7744   -1.6726   -2.8473 O.2     1  LIG11      -0.2422
      8 C           0.0664   -3.3539   -0.4594 C.2     1  LIG11       0.2916
      9 C           4.5365   -3.7207   -1.1033 C.3     1  LIG11      -0.0481
     10 C           4.3759   -2.9443    0.1921 C.3     1  LIG11      -0.0481
     11 C          -1.0433   -2.1827   -2.4154 C.3     1  LIG11       0.1137
     12 C          -1.1896   -3.8927    0.1818 C.3     1  LIG11       0.0509
     13 C          -1.3175   -0.6932   -2.5064 C.ar    1  LIG11      -0.0073
     14 C          -1.4922   -5.3303   -0.2539 C.3     1  LIG11      -0.0424
     15 C          -1.0690    0.2017   -1.4638 C.ar    1  LIG11      -0.0491
     16 C          -1.9361   -0.1854   -3.6513 C.ar    1  LIG11      -0.0544
     17 C          -0.5371   -6.3563    0.3700 C.3     1  LIG11      -0.0554
     18 C          -1.3699    1.5889   -1.5714 C.ar    1  LIG11      -0.0138
     19 C          -2.2405    1.1782   -3.7703 C.ar    1  LIG11      -0.0533
     20 C          -0.9926   -7.7860    0.1176 C.3     1  LIG11      -0.0653
     21 C          -1.9092    2.1144   -2.7786 C.ar    1  LIG11      -0.0106
     22 C          -1.1599    2.4166   -0.3127 C.3     1  LIG11       0.0732
     23 C          -2.2154    3.5584   -2.9999 C.ar    1  LIG11       0.0091
     24 O          -2.3546    2.7672    0.3914 O.3     1  LIG11      -0.3754
     25 C          -1.6253    4.4150   -3.9661 C.ar    1  LIG11       0.1162
     26 C          -3.1840    4.1534   -2.1605 C.ar    1  LIG11      -0.0521
     27 C          -3.2686    1.7184    0.7014 C.3     1  LIG11       0.0453
     28 S          -0.4650    3.8755   -5.2264 S.O2    1  LIG11       0.0741
     29 C          -1.9317    5.7946   -3.9927 C.ar    1  LIG11      -0.0345
     30 C          -3.4749    5.5208   -2.1845 C.ar    1  LIG11      -0.0611
     31 C          -2.7830    0.8190    1.8204 C.3     1  LIG11      -0.0416
     32 N           0.9141    3.5793   -4.3371 N.pl3   1  LIG11      -0.1965
     33 O          -0.9053    2.6035   -5.7598 O.2     1  LIG11      -0.1499
     34 O          -0.2269    4.9703   -6.1424 O.2     1  LIG11      -0.1499
     35 C          -2.8336    6.3472   -3.0905 C.ar    1  LIG11      -0.0599
     36 C           1.5621    4.5790   -3.6293 C.ar    1  LIG11       0.1837
     37 C           2.3207    4.3772   -2.4472 C.ar    1  LIG11       0.0342
     38 N           1.5402    5.8659   -3.9767 N.ar    1  LIG11      -0.0614
     39 C           2.7625    5.6449   -2.1277 C.ar    1  LIG11       0.1390
     40 C           2.5561    3.1259   -1.6963 C.3     1  LIG11      -0.0330
     41 O           2.3048    6.5300   -3.0478 O.2     1  LIG11      -0.3578
     42 C           3.5811    6.2158   -1.0443 C.3     1  LIG11      -0.0034
     43 H           3.0091   -4.1890   -2.5670 H       1  LIG11       0.0316
     44 H           2.8822   -5.1025   -1.0617 H       1  LIG11       0.0316
     45 H           2.6873   -1.7598    0.8774 H       1  LIG11       0.0316
     46 H           3.4014   -1.2146   -0.6472 H       1  LIG11       0.0316
     47 H           4.9626   -3.0734   -1.8790 H       1  LIG11       0.0267
     48 H           5.1898   -4.5910   -0.9916 H       1  LIG11       0.0267
     49 H           4.2053   -3.6332    1.0280 H       1  LIG11       0.0267
     50 H           5.2523   -2.3329    0.4243 H       1  LIG11       0.0267
     51 H          -1.9615   -2.6864   -2.1004 H       1  LIG11       0.0783
     52 H          -0.7947   -2.5527   -3.4185 H       1  LIG11       0.0783
     53 H          -2.0387   -3.2486   -0.0625 H       1  LIG11       0.0387
     54 H          -1.0695   -3.8469    1.2713 H       1  LIG11       0.0387
     55 H          -1.4544   -5.4132   -1.3464 H       1  LIG11       0.0271
     56 H          -2.5169   -5.5708    0.0538 H       1  LIG11       0.0271
     57 H          -0.6500   -0.1756   -0.5318 H       1  LIG11       0.0625
     58 H          -2.1886   -0.8429   -4.4824 H       1  LIG11       0.0622
     59 H          -0.4667   -6.1957    1.4524 H       1  LIG11       0.0263
     60 H           0.4699   -6.2345   -0.0431 H       1  LIG11       0.0263
     61 H          -2.7436    1.5054   -4.6806 H       1  LIG11       0.0624
     62 H          -1.9717   -7.9717    0.5706 H       1  LIG11       0.0230
     63 H          -0.2801   -8.4926    0.5561 H       1  LIG11       0.0230
     64 H          -1.0620   -7.9954   -0.9544 H       1  LIG11       0.0230
     65 H          -0.6457    3.3481   -0.5756 H       1  LIG11       0.0610
     66 H          -0.4871    1.9045    0.3859 H       1  LIG11       0.0610
     67 H          -3.7288    3.5424   -1.4445 H       1  LIG11       0.0624
     68 H          -3.5314    1.1405   -0.1901 H       1  LIG11       0.0557
     69 H          -4.1947    2.2048    1.0285 H       1  LIG11       0.0557
     70 H          -1.4484    6.4580   -4.7101 H       1  LIG11       0.0637
     71 H          -4.1963    5.9327   -1.4836 H       1  LIG11       0.0618
     72 H          -1.8660    0.2920    1.5465 H       1  LIG11       0.0252
     73 H          -3.5469    0.0743    2.0662 H       1  LIG11       0.0252
     74 H          -2.5652    1.4059    2.7179 H       1  LIG11       0.0252
     75 H           1.0297    2.6024   -4.0903 H       1  LIG11       0.1753
     76 H          -3.0399    7.4141   -3.1077 H       1  LIG11       0.0618
     77 H           2.0903    2.2626   -2.1796 H       1  LIG11       0.0280
     78 H           2.1326    3.2086   -0.6898 H       1  LIG11       0.0280
     79 H           3.6275    2.9262   -1.6067 H       1  LIG11       0.0280
     80 H           3.6398    5.5320   -0.1930 H       1  LIG11       0.0309
     81 H           3.1502    7.1582   -0.6913 H       1  LIG11       0.0309
     82 H           4.5968    6.4137   -1.3998 H       1  LIG11       0.0309
@<TRIPOS>BOND
     1     1     5    1
     2     1     4    1
     3     1     2    1
     4     1     3    1
     5     2     6   am
     6     2     7    2
     7     3     8    2
     8     4     9    1
     9     5    10    1
    10     6     8    1
    11     6    11    1
    12     8    12    1
    13     9    10    1
    14    11    13    1
    15    12    14    1
    16    13    15   ar
    17    13    16   ar
    18    14    17    1
    19    15    18   ar
    20    16    19   ar
    21    17    20    1
    22    18    21   ar
    23    18    22    1
    24    19    21   ar
    25    21    23    1
    26    22    24    1
    27    23    26   ar
    28    23    25   ar
    29    24    27    1
    30    25    29   ar
    31    25    28    1
    32    26    30   ar
    33    27    31    1
    34    28    34    2
    35    28    33    2
    36    28    32    1
    37    29    35   ar
    38    30    35   ar
    39    32    36    1
    40    36    37   ar
    41    36    38   ar
    42    37    39   ar
    43    37    40    1
    44    38    41   ar
    45    39    41   ar
    46    39    42    1
    47     4    43    1
    48     4    44    1
    49     5    45    1
    50     5    46    1
    51     9    47    1
    52     9    48    1
    53    10    49    1
    54    10    50    1
    55    11    51    1
    56    11    52    1
    57    12    53    1
    58    12    54    1
    59    14    55    1
    60    14    56    1
    61    15    57    1
    62    16    58    1
    63    17    59    1
    64    17    60    1
    65    19    61    1
    66    20    62    1
    67    20    63    1
    68    20    64    1
    69    22    65    1
    70    22    66    1
    71    26    67    1
    72    27    68    1
    73    27    69    1
    74    29    70    1
    75    30    71    1
    76    31    72    1
    77    31    73    1
    78    31    74    1
    79    32    75    1
    80    35    76    1
    81    40    77    1
    82    40    78    1
    83    40    79    1
    84    42    80    1
    85    42    81    1
    86    42    82    1
@<TRIPOS>MOLECULE
16219006
 85 88 0 0 0
SMALL
GASTEIGER

@<TRIPOS>ATOM
      1 O           4.2213   -0.9862    2.2555 O.2     1  PRO11      -0.2738
      2 O           3.2552    1.1050   -1.3622 O.2     5  ASP55      -0.2735
      3 O           1.9436   -1.8371   -1.7513 O.2     2  VAL22      -0.2738
      4 O          -0.5489    3.0042    1.1337 O.2     4  TRP44      -0.2738
      5 O          -0.6518   -1.2507    1.8135 O.2     3  LEU33      -0.2738
      6 OD1         3.0713    4.9368   -3.3284 O.co2   5  ASP55      -0.5497
      7 OD2         3.5757    4.6640   -1.1217 O.co2   5  ASP55      -0.5497
      8 N           3.4851    1.8359    0.7699 N.am    1  PRO11      -0.2884
      9 N           4.1827   -1.1025   -0.0323 N.am    2  VAL22      -0.3022
     10 N           0.5350    1.9409   -0.5870 N.am    5  ASP55      -0.3021
     11 N           1.2039   -2.7992    0.1820 N.am    3  LEU33      -0.3025
     12 N          -1.0968   -0.3073   -0.2373 N.am    4  TRP44      -0.3022
     13 NE1        -1.9534    1.6747   -4.1226 N.ar    4  TRP44      -0.3604
     14 CA          4.7034    1.0614    0.9939 C.3     1  PRO11       0.1023
     15 CB          5.3130    1.6700    2.2588 C.3     1  PRO11      -0.0243
     16 CG          4.1104    2.2501    2.9944 C.3     1  PRO11      -0.0350
     17 CD          3.2345    2.7597    1.8618 C.3     1  PRO11       0.0156
     18 C           4.3585   -0.4347    1.1647 C.2     1  PRO11       0.2342
     19 C           2.9170    1.9150   -0.4865 C.2     5  ASP55       0.2369
     20 CA          3.6259   -2.4466   -0.0843 C.3     2  VAL22       0.1017
     21 CA          1.6934    2.8446   -0.6799 C.3     5  ASP55       0.1047
     22 CB          4.5256   -3.4170   -0.8816 C.3     2  VAL22      -0.0197
     23 CA         -0.1891   -2.5738   -0.1731 C.3     3  LEU33       0.0996
     24 C           2.1974   -2.3255   -0.6518 C.2     2  VAL22       0.2342
     25 CB          1.7192    3.5067   -2.0476 C.3     5  ASP55       0.0138
     26 CA         -1.5672    0.9835    0.2789 C.3     4  TRP44       0.1034
     27 CB         -1.0691   -3.7725    0.1928 C.3     3  LEU33      -0.0236
     28 CG         -0.7283   -5.0675   -0.5750 C.3     3  LEU33      -0.0446
     29 C          -0.4568    2.0530    0.3579 C.2     4  TRP44       0.2343
     30 CB         -2.7751    1.4978   -0.5251 C.3     4  TRP44       0.0013
     31 C          -0.6645   -1.3212    0.5846 C.2     3  LEU33       0.2340
     32 CG1         4.7641   -3.0129   -2.3387 C.3     2  VAL22      -0.0605
     33 CG2         3.9864   -4.8501   -0.8195 C.3     2  VAL22      -0.0605
     34 CG         -2.4901    1.8344   -1.9628 C.ar    4  TRP44      -0.0201
     35 CG          2.9051    4.4562   -2.1712 C.2     5  ASP55       0.0440
     36 CD1        -1.6868   -6.1827   -0.1513 C.3     3  LEU33      -0.0626
     37 CD2        -0.7854   -4.8912   -2.0942 C.3     3  LEU33      -0.0626
     38 CD2        -2.4262    3.1523   -2.5257 C.ar    4  TRP44       0.0029
     39 CD1        -2.2491    0.9499   -2.9988 C.ar    4  TRP44       0.0060
     40 CE2        -2.0897    3.0178   -3.8721 C.ar    4  TRP44       0.0467
     41 CE3        -2.6062    4.4520   -2.0083 C.ar    4  TRP44      -0.0523
     42 CZ2        -1.9168    4.1135   -4.7256 C.ar    4  TRP44      -0.0378
     43 CZ3        -2.4510    5.5589   -2.8508 C.ar    4  TRP44      -0.0611
     44 CH2        -2.1080    5.3891   -4.1891 C.ar    4  TRP44      -0.0598
     45 H           3.9870   -0.4931   -0.8372 H       2  VAL22       0.1495
     46 H           0.5863    1.1213   -1.1741 H       5  ASP55       0.1495
     47 H           1.4119   -2.8076    1.1773 H       3  LEU33       0.1495
     48 H          -0.8319   -0.3404   -1.2152 H       4  TRP44       0.1495
     49 HE1        -1.6756    1.2896   -5.0144 H       4  TRP44       0.1653
     50 HA          5.3899    1.1687    0.1454 H       1  PRO11       0.0597
     51 HB1         5.9927    2.4854    1.9815 H       1  PRO11       0.0288
     52 HB2         5.8743    0.9574    2.8702 H       1  PRO11       0.0288
     53 HG1         4.3835    3.0376    3.7020 H       1  PRO11       0.0281
     54 HG2         3.5912    1.4579    3.5467 H       1  PRO11       0.0281
     55 HD1         2.1752    2.7695    2.1307 H       1  PRO11       0.0465
     56 HD2         3.5406    3.7626    1.5462 H       1  PRO11       0.0465
     57 HA          3.5560   -2.8343    0.9392 H       2  VAL22       0.0597
     58 HA          1.6237    3.6005    0.1052 H       5  ASP55       0.0598
     59 HB          5.5093   -3.4203   -0.3912 H       2  VAL22       0.0318
     60 HA         -0.2757   -2.3805   -1.2473 H       3  LEU33       0.0594
     61 HB1         0.7993    4.0824   -2.2047 H       5  ASP55       0.0348
     62 HB2         1.7763    2.7606   -2.8501 H       5  ASP55       0.0348
     63 HA         -1.8957    0.8162    1.3132 H       4  TRP44       0.0598
     64 HB1        -2.1193   -3.5078    0.0092 H       3  LEU33       0.0290
     65 HB2        -0.9900   -3.9700    1.2706 H       3  LEU33       0.0290
     66 HG          0.2883   -5.3816   -0.3072 H       3  LEU33       0.0296
     67 HB1        -3.1863    2.3813   -0.0213 H       4  TRP44       0.0337
     68 HB2        -3.5694    0.7394   -0.5044 H       4  TRP44       0.0337
     69 HG11        3.8505   -3.0793   -2.9368 H       2  VAL22       0.0233
     70 HG12        5.5026   -3.6788   -2.7997 H       2  VAL22       0.0233
     71 HG13        5.1540   -1.9932   -2.4134 H       2  VAL22       0.0233
     72 HG21        3.0259   -4.9434   -1.3371 H       2  VAL22       0.0233
     73 HG22        3.8471   -5.1706    0.2183 H       2  VAL22       0.0233
     74 HG23        4.6880   -5.5475   -1.2902 H       2  VAL22       0.0233
     75 HD11       -2.7223   -5.9344   -0.4088 H       3  LEU33       0.0232
     76 HD12       -1.6357   -6.3509    0.9293 H       3  LEU33       0.0232
     77 HD13       -1.4315   -7.1246   -0.6483 H       3  LEU33       0.0232
     78 HD21       -1.7447   -4.4673   -2.4095 H       3  LEU33       0.0232
     79 HD22       -0.6553   -5.8519   -2.6040 H       3  LEU33       0.0232
     80 HD23        0.0134   -4.2328   -2.4495 H       3  LEU33       0.0232
     81 HD1        -2.2279   -0.1305   -3.0317 H       4  TRP44       0.0810
     82 HE3        -2.8435    4.6029   -0.9595 H       4  TRP44       0.0624
     83 HZ2        -1.6202    3.9866   -5.7612 H       4  TRP44       0.0638
     84 HZ3        -2.5731    6.5605   -2.4474 H       4  TRP44       0.0618
     85 HH2        -1.9599    6.2617   -4.8206 H       4  TRP44       0.0618
@<TRIPOS>BOND
     1     1    18    2
     2     2    19    2
     3     3    24    2
     4     4    29    2
     5     5    31    2
     6     6    35   ar
     7     7    35   ar
     8     8    14    1
     9     8    17    1
    10     8    19   am
    11     9    18   am
    12     9    20    1
    13    10    21    1
    14    10    29   am
    15    11    23    1
    16    11    24   am
    17    12    26    1
    18    12    31   am
    19    13    39   ar
    20    13    40   ar
    21    14    15    1
    22    14    18    1
    23    15    16    1
    24    16    17    1
    25    19    21    1
    26    20    22    1
    27    20    24    1
    28    21    25    1
    29    22    32    1
    30    22    33    1
    31    23    27    1
    32    23    31    1
    33    25    35    1
    34    26    29    1
    35    26    30    1
    36    27    28    1
    37    28    36    1
    38    28    37    1
    39    30    34    1
    40    34    38   ar
    41    34    39   ar
    42    38    40   ar
    43    38    41   ar
    44    40    42   ar
    45    41    43   ar
    46    42    44   ar
    47    43    44   ar
    48     9    45    1
    49    10    46    1
    50    11    47    1
    51    12    48    1
    52    13    49    1
    53    14    50    1
    54    15    51    1
    55    15    52    1
    56    16    53    1
    57    16    54    1
    58    17    55    1
    59    17    56    1
    60    20    57    1
    61    21    58    1
    62    22    59    1
    63    23    60    1
    64    25    61    1
    65    25    62    1
    66    26    63    1
    67    27    64    1
    68    27    65    1
    69    28    66    1
    70    30    67    1
    71    30    68    1
    72    32    69    1
    73    32    70    1
    74    32    71    1
    75    33    72    1
    76    33    73    1
    77    33    74    1
    78    36    75    1
    79    36    76    1
    80    36    77    1
    81    37    78    1
    82    37    79    1
    83    37    80    1
    84    39    81    1
    85    41    82    1
    86    42    83    1
    87    43    84    1
    88    44    85    1
