@<TRIPOS>MOLECULE
2-[[2-[2-butyl-4-[(Z)-2-carboxy-3-(6-methoxy-1,3-benzodioxol-5-yl)prop-1-enyl]pyrazol-3-yl]-5-methoxyphenoxy]methyl]benzoic acid
 77 81 0 0 0
SMALL
GASTEIGER

@<TRIPOS>ATOM
      1 O          -0.5299   -2.7729   -1.0349 O.3     1  LIG11      -0.4866
      2 O          -2.9407    6.2632   -5.3096 O.3     1  LIG11      -0.4526
      3 O          -4.1223    6.6328   -3.2395 O.3     1  LIG11      -0.4525
      4 O          -1.0982    3.7473   -0.7989 O.3     1  LIG11      -0.4947
      5 O          -4.5836   -0.9466   -2.9253 O.3     1  LIG11      -0.4950
      6 O           1.9299    5.2737   -3.4435 O.co2   1  LIG11      -0.5449
      7 O           3.4080    4.4997   -1.9037 O.co2   1  LIG11      -0.5449
      8 O           1.2193   -4.1102   -3.0497 O.co2   1  LIG11      -0.5446
      9 O          -0.6797   -3.9894   -4.3075 O.co2   1  LIG11      -0.5446
     10 N           1.3234   -0.8368    0.1168 N.ar    1  LIG11      -0.2630
     11 N           1.7897   -0.2055    1.2219 N.ar    1  LIG11      -0.1785
     12 C           0.6043    0.0265   -0.7181 C.ar    1  LIG11       0.0795
     13 C           1.9156   -2.1216   -0.2277 C.3     1  LIG11       0.0422
     14 C           3.4448   -2.1649   -0.1618 C.3     1  LIG11      -0.0336
     15 C           1.3728    1.2037   -0.5637 C.ar    1  LIG11       0.0207
     16 C          -0.6747   -0.3860   -1.3947 C.ar    1  LIG11       0.0425
     17 C           3.9306   -3.5920   -0.4268 C.3     1  LIG11      -0.0542
     18 C           1.9627    1.0190    0.7347 C.ar    1  LIG11       0.0571
     19 C           1.7151    2.4314   -1.2440 C.2     1  LIG11      -0.0459
     20 C           0.2909    3.0852   -3.3073 C.3     1  LIG11       0.0029
     21 C          -1.2424   -1.6891   -1.4696 C.ar    1  LIG11       0.1336
     22 C           1.3819    3.2158   -2.2922 C.2     1  LIG11      -0.0200
     23 C          -0.8884    4.0567   -3.1679 C.ar    1  LIG11       0.0023
     24 C          -1.5100    0.6415   -1.8380 C.ar    1  LIG11      -0.0456
     25 C           5.4237   -3.6385   -0.6941 C.3     1  LIG11      -0.0652
     26 C          -2.5216   -1.8978   -2.0360 C.ar    1  LIG11       0.0224
     27 C          -1.5882    4.3067   -1.9513 C.ar    1  LIG11       0.1273
     28 C          -1.3277    4.7036   -4.3450 C.ar    1  LIG11      -0.0092
     29 C          -2.7855    0.4462   -2.3773 C.ar    1  LIG11      -0.0191
     30 C          -2.4125    5.5503   -4.2759 C.ar    1  LIG11       0.1667
     31 C          -3.3097   -0.8285   -2.4419 C.ar    1  LIG11       0.1236
     32 C          -3.0849    5.7641   -3.0985 C.ar    1  LIG11       0.1697
     33 C          -2.7006    5.1625   -1.9228 C.ar    1  LIG11       0.0258
     34 C           2.3278    4.4547   -2.5646 C.2     1  LIG11       0.0680
     35 C          -1.2064   -3.8783   -0.4467 C.3     1  LIG11       0.1153
     36 C          -3.9686    7.0017   -4.6230 C.3     1  LIG11       0.2332
     37 C          -1.1537   -5.2154   -1.1734 C.ar    1  LIG11      -0.0016
     38 C          -0.6332   -5.4385   -2.4635 C.ar    1  LIG11       0.0037
     39 C          -1.6897   -6.3261   -0.4813 C.ar    1  LIG11      -0.0547
     40 C          -2.0439    3.4070    0.2053 C.3     1  LIG11       0.0788
     41 C          -0.6795   -6.7359   -3.0213 C.ar    1  LIG11      -0.0525
     42 C          -1.7144   -7.6068   -1.0431 C.ar    1  LIG11      -0.0614
     43 C          -5.3905   -1.8195   -2.1402 C.3     1  LIG11       0.0788
     44 C          -1.2119   -7.8115   -2.3199 C.ar    1  LIG11      -0.0611
     45 C           0.0088   -4.3866   -3.3236 C.2     1  LIG11       0.0720
     46 H           1.6455   -2.3391   -1.2576 H       1  LIG11       0.0509
     47 H           1.4842   -2.8533    0.4594 H       1  LIG11       0.0509
     48 H           3.8136   -1.8347    0.8175 H       1  LIG11       0.0283
     49 H           3.8563   -1.4738   -0.9065 H       1  LIG11       0.0283
     50 H           3.4067   -4.0167   -1.2868 H       1  LIG11       0.0263
     51 H           3.6928   -4.2222    0.4375 H       1  LIG11       0.0263
     52 H           2.5360    1.7342    1.3085 H       1  LIG11       0.0854
     53 H           2.5815    2.8606   -0.7243 H       1  LIG11       0.0628
     54 H          -0.0761    2.0604   -3.3803 H       1  LIG11       0.0363
     55 H           0.7495    3.2300   -4.2980 H       1  LIG11       0.0363
     56 H          -1.1667    1.6537   -1.7267 H       1  LIG11       0.0626
     57 H           5.6744   -3.0653   -1.5907 H       1  LIG11       0.0230
     58 H           5.7440   -4.6735   -0.8541 H       1  LIG11       0.0230
     59 H           5.9907   -3.2302    0.1488 H       1  LIG11       0.0230
     60 H          -2.8789   -2.9083   -2.1957 H       1  LIG11       0.0691
     61 H          -0.7984    4.5671   -5.2814 H       1  LIG11       0.0659
     62 H          -3.3621    1.3025   -2.7175 H       1  LIG11       0.0654
     63 H          -3.2320    5.3852   -1.0106 H       1  LIG11       0.0692
     64 H          -2.2479   -3.6433   -0.1889 H       1  LIG11       0.0748
     65 H          -0.7039   -4.0361    0.5151 H       1  LIG11       0.0748
     66 H          -4.9207    6.8336   -5.1373 H       1  LIG11       0.1166
     67 H          -3.7290    8.0695   -4.6737 H       1  LIG11       0.1166
     68 H          -2.0907   -6.1916    0.5201 H       1  LIG11       0.0622
     69 H          -1.5759    2.6770    0.8714 H       1  LIG11       0.0660
     70 H          -2.9441    2.9461   -0.2146 H       1  LIG11       0.0660
     71 H          -2.3023    4.2888    0.8028 H       1  LIG11       0.0660
     72 H          -0.2766   -6.8795   -4.0226 H       1  LIG11       0.0624
     73 H          -2.1253   -8.4392   -0.4821 H       1  LIG11       0.0618
     74 H          -6.4370   -1.6437   -2.4163 H       1  LIG11       0.0660
     75 H          -5.2937   -1.6061   -1.0683 H       1  LIG11       0.0660
     76 H          -5.1625   -2.8690   -2.3498 H       1  LIG11       0.0660
     77 H          -1.2234   -8.7969   -2.7740 H       1  LIG11       0.0618
@<TRIPOS>BOND
     1     1    35    1
     2     1    21    1
     3     2    36    1
     4     2    30    1
     5     3    32    1
     6     3    36    1
     7     4    27    1
     8     4    40    1
     9     5    31    1
    10     5    43    1
    11     6    34   ar
    12     7    34   ar
    13     8    45   ar
    14     9    45   ar
    15    10    11   ar
    16    10    12   ar
    17    10    13    1
    18    11    18   ar
    19    12    15   ar
    20    13    14    1
    21    14    17    1
    22    15    18   ar
    23    15    19    1
    24    16    24   ar
    25    16    21   ar
    26    16    12    1
    27    17    25    1
    28    19    22    2
    29    20    22    1
    30    20    23    1
    31    21    26   ar
    32    22    34    1
    33    23    28   ar
    34    23    27   ar
    35    24    29   ar
    36    26    31   ar
    37    27    33   ar
    38    28    30   ar
    39    29    31   ar
    40    30    32   ar
    41    32    33   ar
    42    35    37    1
    43    37    39   ar
    44    37    38   ar
    45    38    41   ar
    46    38    45    1
    47    39    42   ar
    48    41    44   ar
    49    42    44   ar
    50    13    46    1
    51    13    47    1
    52    14    48    1
    53    14    49    1
    54    17    50    1
    55    17    51    1
    56    18    52    1
    57    19    53    1
    58    20    54    1
    59    20    55    1
    60    24    56    1
    61    25    57    1
    62    25    58    1
    63    25    59    1
    64    26    60    1
    65    28    61    1
    66    29    62    1
    67    33    63    1
    68    35    64    1
    69    35    65    1
    70    36    66    1
    71    36    67    1
    72    39    68    1
    73    40    69    1
    74    40    70    1
    75    40    71    1
    76    41    72    1
    77    42    73    1
    78    43    74    1
    79    43    75    1
    80    43    76    1
    81    44    77    1
@<TRIPOS>MOLECULE
16219006
 85 88 0 0 0
SMALL
GASTEIGER

@<TRIPOS>ATOM
      1 O           4.2511   -0.9914    2.2750 O.2     1  PRO11      -0.2738
      2 O           3.2379    1.1048   -1.3337 O.2     5  ASP55      -0.2735
      3 O           1.9366   -1.8325   -1.7432 O.2     2  VAL22      -0.2738
      4 O          -0.5639    2.9799    1.1493 O.2     4  TRP44      -0.2738
      5 O          -0.6826   -1.2634    1.7987 O.2     3  LEU33      -0.2738
      6 OD1         3.5728    4.6831   -1.0378 O.co2   5  ASP55      -0.5497
      7 OD2         3.1941    4.8727   -3.2777 O.co2   5  ASP55      -0.5497
      8 N           3.4735    1.8358    0.7978 N.am    1  PRO11      -0.2884
      9 N           4.1632   -1.0920   -0.0121 N.am    2  VAL22      -0.3022
     10 N           0.5210    1.9523   -0.5921 N.am    5  ASP55      -0.3021
     11 N           1.1911   -2.8072    0.1812 N.am    3  LEU33      -0.3025
     12 N          -1.1021   -0.3159   -0.2556 N.am    4  TRP44      -0.3022
     13 NE1        -1.9747    1.6739   -4.1458 N.ar    4  TRP44      -0.3604
     14 CA          4.6967    1.0667    1.0162 C.3     1  PRO11       0.1023
     15 CB          5.3096    1.6778    2.2782 C.3     1  PRO11      -0.0243
     16 CG          4.1077    2.2520    3.0195 C.3     1  PRO11      -0.0350
     17 CD          3.2252    2.7591    1.8908 C.3     1  PRO11       0.0156
     18 C           4.3606   -0.4317    1.1853 C.2     1  PRO11       0.2342
     19 C           2.9026    1.9147   -0.4568 C.2     5  ASP55       0.2369
     20 CA          3.6129   -2.4381   -0.0676 C.3     2  VAL22       0.1017
     21 CA          1.6854    2.8510   -0.6546 C.3     5  ASP55       0.1047
     22 CB          4.5230   -3.4021   -0.8607 C.3     2  VAL22      -0.0197
     23 CA         -0.2004   -2.5873   -0.1817 C.3     3  LEU33       0.0996
     24 C           2.1870   -2.3236   -0.6442 C.2     2  VAL22       0.2342
     25 CB          1.7395    3.5304   -2.0130 C.3     5  ASP55       0.0138
     26 CA         -1.5778    0.9720    0.2619 C.3     4  TRP44       0.1034
     27 CB         -1.0786   -3.7873    0.1893 C.3     3  LEU33      -0.0236
     28 CG         -0.7319   -5.0859   -0.5694 C.3     3  LEU33      -0.0446
     29 C          -0.4694    2.0440    0.3570 C.2     4  TRP44       0.2343
     30 CB         -2.7816    1.4887   -0.5457 C.3     4  TRP44       0.0013
     31 C          -0.6822   -1.3331    0.5736 C.2     3  LEU33       0.2340
     32 CG1         4.7655   -2.9944   -2.3164 C.3     2  VAL22      -0.0605
     33 CG2         3.9935   -4.8387   -0.8028 C.3     2  VAL22      -0.0605
     34 CG         -2.4934    1.8296   -1.9813 C.ar    4  TRP44      -0.0201
     35 CG          2.9541    4.4459   -2.1126 C.2     5  ASP55       0.0440
     36 CD1        -1.6837   -6.2032   -0.1359 C.3     3  LEU33      -0.0626
     37 CD2        -0.7926   -4.9206   -2.0896 C.3     3  LEU33      -0.0626
     38 CD2        -2.4138    3.1494   -2.5374 C.ar    4  TRP44       0.0029
     39 CD1        -2.2675    0.9472   -3.0223 C.ar    4  TRP44       0.0060
     40 CE2        -2.0914    3.0175   -3.8875 C.ar    4  TRP44       0.0467
     41 CE3        -2.5714    4.4487   -2.0115 C.ar    4  TRP44      -0.0523
     42 CZ2        -1.9136    4.1154   -4.7373 C.ar    4  TRP44      -0.0378
     43 CZ3        -2.4095    5.5579   -2.8496 C.ar    4  TRP44      -0.0611
     44 CH2        -2.0829    5.3907   -4.1923 C.ar    4  TRP44      -0.0598
     45 H           3.9605   -0.4792   -0.8127 H       2  VAL22       0.1495
     46 H           0.5743    1.1430   -1.1931 H       5  ASP55       0.1495
     47 H           1.3931   -2.8190    1.1776 H       3  LEU33       0.1495
     48 H          -0.8258   -0.3463   -1.2289 H       4  TRP44       0.1495
     49 HE1        -1.7116    1.2896   -5.0424 H       4  TRP44       0.1653
     50 HA          5.3790    1.1783    0.1648 H       1  PRO11       0.0597
     51 HB1         5.9838    2.4967    1.9976 H       1  PRO11       0.0288
     52 HB2         5.8777    0.9683    2.8868 H       1  PRO11       0.0288
     53 HG1         4.3806    3.0401    3.7266 H       1  PRO11       0.0281
     54 HG2         3.5943    1.4570    3.5731 H       1  PRO11       0.0281
     55 HD1         2.1668    2.7658    2.1638 H       1  PRO11       0.0465
     56 HD2         3.5272    3.7630    1.5750 H       1  PRO11       0.0465
     57 HA          3.5385   -2.8261    0.9555 H       2  VAL22       0.0597
     58 HA          1.6070    3.5963    0.1396 H       5  ASP55       0.0598
     59 HB          5.5042   -3.3989   -0.3656 H       2  VAL22       0.0318
     60 HA         -0.2844   -2.3994   -1.2565 H       3  LEU33       0.0594
     61 HB1         0.8380    4.1347   -2.1691 H       5  ASP55       0.0348
     62 HB2         1.7803    2.7930   -2.8245 H       5  ASP55       0.0348
     63 HA         -1.9143    0.8000    1.2927 H       4  TRP44       0.0598
     64 HB1        -2.1291   -3.5269    0.0016 H       3  LEU33       0.0290
     65 HB2        -1.0016   -3.9780    1.2684 H       3  LEU33       0.0290
     66 HG          0.2867   -5.3928   -0.3010 H       3  LEU33       0.0296
     67 HB1        -3.1949    2.3709   -0.0412 H       4  TRP44       0.0337
     68 HB2        -3.5762    0.7305   -0.5296 H       4  TRP44       0.0337
     69 HG11        3.8555   -3.0680   -2.9190 H       2  VAL22       0.0233
     70 HG12        5.5121   -3.6534   -2.7742 H       2  VAL22       0.0233
     71 HG13        5.1469   -1.9713   -2.3881 H       2  VAL22       0.0233
     72 HG21        3.0362   -4.9381   -1.3250 H       2  VAL22       0.0233
     73 HG22        3.8516   -5.1612    0.2341 H       2  VAL22       0.0233
     74 HG23        4.7023   -5.5306   -1.2708 H       2  VAL22       0.0233
     75 HD11       -2.7211   -5.9620   -0.3923 H       3  LEU33       0.0232
     76 HD12       -1.6291   -6.3639    0.9458 H       3  LEU33       0.0232
     77 HD13       -1.4248   -7.1472   -0.6270 H       3  LEU33       0.0232
     78 HD21       -1.7551   -4.5047   -2.4061 H       3  LEU33       0.0232
     79 HD22       -0.6579   -5.8841   -2.5928 H       3  LEU33       0.0232
     80 HD23        0.0016   -4.2599   -2.4508 H       3  LEU33       0.0232
     81 HD1        -2.2592   -0.1333   -3.0595 H       4  TRP44       0.0810
     82 HE3        -2.7967    4.5970   -0.9596 H       4  TRP44       0.0624
     83 HZ2        -1.6309    3.9902   -5.7769 H       4  TRP44       0.0638
     84 HZ3        -2.5143    6.5588   -2.4395 H       4  TRP44       0.0618
     85 HH2        -1.9313    6.2648   -4.8209 H       4  TRP44       0.0618
@<TRIPOS>BOND
     1     1    18    2
     2     2    19    2
     3     3    24    2
     4     4    29    2
     5     5    31    2
     6     6    35   ar
     7     7    35   ar
     8     8    14    1
     9     8    17    1
    10     8    19   am
    11     9    18   am
    12     9    20    1
    13    10    21    1
    14    10    29   am
    15    11    23    1
    16    11    24   am
    17    12    26    1
    18    12    31   am
    19    13    39   ar
    20    13    40   ar
    21    14    15    1
    22    14    18    1
    23    15    16    1
    24    16    17    1
    25    19    21    1
    26    20    22    1
    27    20    24    1
    28    21    25    1
    29    22    32    1
    30    22    33    1
    31    23    27    1
    32    23    31    1
    33    25    35    1
    34    26    29    1
    35    26    30    1
    36    27    28    1
    37    28    36    1
    38    28    37    1
    39    30    34    1
    40    34    38   ar
    41    34    39   ar
    42    38    40   ar
    43    38    41   ar
    44    40    42   ar
    45    41    43   ar
    46    42    44   ar
    47    43    44   ar
    48     9    45    1
    49    10    46    1
    50    11    47    1
    51    12    48    1
    52    13    49    1
    53    14    50    1
    54    15    51    1
    55    15    52    1
    56    16    53    1
    57    16    54    1
    58    17    55    1
    59    17    56    1
    60    20    57    1
    61    21    58    1
    62    22    59    1
    63    23    60    1
    64    25    61    1
    65    25    62    1
    66    26    63    1
    67    27    64    1
    68    27    65    1
    69    28    66    1
    70    30    67    1
    71    30    68    1
    72    32    69    1
    73    32    70    1
    74    32    71    1
    75    33    72    1
    76    33    73    1
    77    33    74    1
    78    36    75    1
    79    36    76    1
    80    36    77    1
    81    37    78    1
    82    37    79    1
    83    37    80    1
    84    39    81    1
    85    41    82    1
    86    42    83    1
    87    43    84    1
    88    44    85    1
